<?xml version="1.0" encoding="UTF-8"?>

<!-- generated on 03/19/21 20:44:12 by Eclipse SUMO netconvert Version 1.8.0
<configuration xmlns:xsi="http://www.w3.org/2001/XMLSchema-instance" xsi:noNamespaceSchemaLocation="http://sumo.dlr.de/xsd/netconvertConfiguration.xsd">

    <input>
        <node-files value="./tmp/lane.nod.xml"/>
        <edge-files value="./tmp/lane.edg.xml"/>
        <connection-files value="./tmp/lane.con.xml"/>
    </input>

    <output>
        <output-file value="./tmp/lane2by2.net.xml"/>
    </output>

    <report>
        <aggregate-warnings value="5"/>
    </report>

</configuration>
-->

<net version="1.6" junctionCornerDetail="5" limitTurnSpeed="5.50" xmlns:xsi="http://www.w3.org/2001/XMLSchema-instance" xsi:noNamespaceSchemaLocation="http://sumo.dlr.de/xsd/net_file.xsd">

    <location netOffset="236.40,236.40" convBoundary="0.00,0.00,1154.40,1154.40" origBoundary="-236.40,-236.40,918.00,918.00" projParameter="!"/>

    <edge id=":001_001_0" function="internal">
        <lane id=":001_001_0_0" index="0" speed="6.51" length="9.03" width="3.20" shape="455.60,477.20 455.25,474.75 454.20,473.00 452.45,471.95 450.00,471.60"/>
    </edge>
    <edge id=":001_001_1" function="internal">
        <lane id=":001_001_1_0" index="0" speed="11.18" length="27.20" width="3.20" shape="455.60,477.20 455.60,450.00"/>
    </edge>
    <edge id=":001_001_2" function="internal">
        <lane id=":001_001_2_0" index="0" speed="11.18" length="6.41" width="3.20" shape="455.60,477.20 457.43,471.05"/>
    </edge>
    <edge id=":001_001_3" function="internal">
        <lane id=":001_001_3_0" index="0" speed="8.00" length="5.93" width="3.20" shape="458.80,477.20 458.25,473.35 457.20,471.60"/>
    </edge>
    <edge id=":001_001_4" function="internal">
        <lane id=":001_001_4_0" index="0" speed="11.18" length="27.20" width="3.20" shape="458.80,477.20 458.80,450.00"/>
    </edge>
    <edge id=":001_001_5" function="internal">
        <lane id=":001_001_5_0" index="0" speed="11.07" length="11.48" width="3.20" shape="458.80,477.20 460.46,470.67 463.24,466.83"/>
    </edge>
    <edge id=":001_001_6" function="internal">
        <lane id=":001_001_6_0" index="0" speed="9.26" length="6.96" width="3.20" shape="462.00,477.20 461.25,471.95 460.40,470.53"/>
    </edge>
    <edge id=":001_001_7" function="internal">
        <lane id=":001_001_7_0" index="0" speed="11.18" length="27.20" width="3.20" shape="462.00,477.20 462.00,450.00"/>
    </edge>
    <edge id=":001_001_8" function="internal">
        <lane id=":001_001_8_0" index="0" speed="10.10" length="5.96" width="3.20" shape="462.00,477.20 463.37,471.80 463.60,471.48"/>
    </edge>
    <edge id=":001_001_36" function="internal">
        <lane id=":001_001_36_0" index="0" speed="11.18" length="26.08" width="3.20" shape="457.43,471.05 457.73,470.08 463.07,463.07 470.08,457.73 477.20,455.60"/>
    </edge>
    <edge id=":001_001_37" function="internal">
        <lane id=":001_001_37_0" index="0" speed="8.00" length="8.26" width="3.20" shape="457.20,471.60 456.60,470.60 453.85,468.95 450.00,468.40"/>
    </edge>
    <edge id=":001_001_38" function="internal">
        <lane id=":001_001_38_0" index="0" speed="11.07" length="16.62" width="3.20" shape="463.24,466.83 464.75,464.75 470.67,460.46 477.20,458.80"/>
    </edge>
    <edge id=":001_001_39" function="internal">
        <lane id=":001_001_39_0" index="0" speed="9.26" length="12.40" width="3.20" shape="460.40,470.53 459.00,468.20 455.25,465.95 450.00,465.20"/>
    </edge>
    <edge id=":001_001_40" function="internal">
        <lane id=":001_001_40_0" index="0" speed="10.10" length="17.25" width="3.20" shape="463.60,471.48 466.91,466.91 471.80,463.37 477.20,462.00"/>
    </edge>
    <edge id=":001_001_9" function="internal">
        <lane id=":001_001_9_0" index="0" speed="6.51" length="9.03" width="3.20" shape="477.20,471.60 474.75,471.95 473.00,473.00 471.95,474.75 471.60,477.20"/>
    </edge>
    <edge id=":001_001_10" function="internal">
        <lane id=":001_001_10_0" index="0" speed="11.18" length="27.20" width="3.20" shape="477.20,471.60 450.00,471.60"/>
    </edge>
    <edge id=":001_001_11" function="internal">
        <lane id=":001_001_11_0" index="0" speed="11.18" length="32.49" width="3.20" shape="477.20,471.60 470.08,469.48 463.07,464.13 457.73,457.13 455.60,450.00"/>
    </edge>
    <edge id=":001_001_12" function="internal">
        <lane id=":001_001_12_0" index="0" speed="8.00" length="14.19" width="3.20" shape="477.20,468.40 473.35,468.95 470.60,470.60 468.95,473.35 468.40,477.20"/>
    </edge>
    <edge id=":001_001_13" function="internal">
        <lane id=":001_001_13_0" index="0" speed="11.18" length="27.20" width="3.20" shape="477.20,468.40 450.00,468.40"/>
    </edge>
    <edge id=":001_001_14" function="internal">
        <lane id=":001_001_14_0" index="0" speed="11.07" length="28.10" width="3.20" shape="477.20,468.40 470.67,466.74 464.75,462.45 460.46,456.53 458.80,450.00"/>
    </edge>
    <edge id=":001_001_15" function="internal">
        <lane id=":001_001_15_0" index="0" speed="9.26" length="19.35" width="3.20" shape="477.20,465.20 471.95,465.95 468.20,468.20 465.95,471.95 465.20,477.20"/>
    </edge>
    <edge id=":001_001_16" function="internal">
        <lane id=":001_001_16_0" index="0" speed="11.18" length="27.20" width="3.20" shape="477.20,465.20 450.00,465.20"/>
    </edge>
    <edge id=":001_001_17" function="internal">
        <lane id=":001_001_17_0" index="0" speed="10.10" length="23.22" width="3.20" shape="477.20,465.20 471.80,463.83 466.91,460.29 463.37,455.40 462.00,450.00"/>
    </edge>
    <edge id=":001_001_18" function="internal">
        <lane id=":001_001_18_0" index="0" speed="6.51" length="9.03" width="3.20" shape="471.60,450.00 471.95,452.45 473.00,454.20 474.75,455.25 477.20,455.60"/>
    </edge>
    <edge id=":001_001_19" function="internal">
        <lane id=":001_001_19_0" index="0" speed="11.18" length="27.20" width="3.20" shape="471.60,450.00 471.60,477.20"/>
    </edge>
    <edge id=":001_001_20" function="internal">
        <lane id=":001_001_20_0" index="0" speed="11.18" length="6.41" width="3.20" shape="471.60,450.00 469.77,456.15"/>
    </edge>
    <edge id=":001_001_21" function="internal">
        <lane id=":001_001_21_0" index="0" speed="8.00" length="5.93" width="3.20" shape="468.40,450.00 468.95,453.85 470.00,455.60"/>
    </edge>
    <edge id=":001_001_22" function="internal">
        <lane id=":001_001_22_0" index="0" speed="11.18" length="27.20" width="3.20" shape="468.40,450.00 468.40,477.20"/>
    </edge>
    <edge id=":001_001_23" function="internal">
        <lane id=":001_001_23_0" index="0" speed="11.07" length="11.48" width="3.20" shape="468.40,450.00 466.74,456.53 463.96,460.37"/>
    </edge>
    <edge id=":001_001_24" function="internal">
        <lane id=":001_001_24_0" index="0" speed="9.26" length="6.96" width="3.20" shape="465.20,450.00 465.95,455.25 466.80,456.67"/>
    </edge>
    <edge id=":001_001_25" function="internal">
        <lane id=":001_001_25_0" index="0" speed="11.18" length="27.20" width="3.20" shape="465.20,450.00 465.20,477.20"/>
    </edge>
    <edge id=":001_001_26" function="internal">
        <lane id=":001_001_26_0" index="0" speed="10.10" length="5.96" width="3.20" shape="465.20,450.00 463.83,455.40 463.60,455.72"/>
    </edge>
    <edge id=":001_001_41" function="internal">
        <lane id=":001_001_41_0" index="0" speed="11.18" length="26.08" width="3.20" shape="469.77,456.15 469.48,457.13 464.13,464.13 457.13,469.48 450.00,471.60"/>
    </edge>
    <edge id=":001_001_42" function="internal">
        <lane id=":001_001_42_0" index="0" speed="8.00" length="8.26" width="3.20" shape="470.00,455.60 470.60,456.60 473.35,458.25 477.20,458.80"/>
    </edge>
    <edge id=":001_001_43" function="internal">
        <lane id=":001_001_43_0" index="0" speed="11.07" length="16.62" width="3.20" shape="463.96,460.37 462.45,462.45 456.53,466.74 450.00,468.40"/>
    </edge>
    <edge id=":001_001_44" function="internal">
        <lane id=":001_001_44_0" index="0" speed="9.26" length="12.40" width="3.20" shape="466.80,456.67 468.20,459.00 471.95,461.25 477.20,462.00"/>
    </edge>
    <edge id=":001_001_45" function="internal">
        <lane id=":001_001_45_0" index="0" speed="10.10" length="17.25" width="3.20" shape="463.60,455.72 460.29,460.29 455.40,463.83 450.00,465.20"/>
    </edge>
    <edge id=":001_001_27" function="internal">
        <lane id=":001_001_27_0" index="0" speed="6.51" length="9.03" width="3.20" shape="450.00,455.60 452.45,455.25 454.20,454.20 455.25,452.45 455.60,450.00"/>
    </edge>
    <edge id=":001_001_28" function="internal">
        <lane id=":001_001_28_0" index="0" speed="11.18" length="27.20" width="3.20" shape="450.00,455.60 477.20,455.60"/>
    </edge>
    <edge id=":001_001_29" function="internal">
        <lane id=":001_001_29_0" index="0" speed="11.18" length="32.49" width="3.20" shape="450.00,455.60 457.13,457.73 464.13,463.07 469.48,470.08 471.60,477.20"/>
    </edge>
    <edge id=":001_001_30" function="internal">
        <lane id=":001_001_30_0" index="0" speed="8.00" length="14.19" width="3.20" shape="450.00,458.80 453.85,458.25 456.60,456.60 458.25,453.85 458.80,450.00"/>
    </edge>
    <edge id=":001_001_31" function="internal">
        <lane id=":001_001_31_0" index="0" speed="11.18" length="27.20" width="3.20" shape="450.00,458.80 477.20,458.80"/>
    </edge>
    <edge id=":001_001_32" function="internal">
        <lane id=":001_001_32_0" index="0" speed="11.07" length="28.10" width="3.20" shape="450.00,458.80 456.53,460.46 462.45,464.75 466.74,470.67 468.40,477.20"/>
    </edge>
    <edge id=":001_001_33" function="internal">
        <lane id=":001_001_33_0" index="0" speed="9.26" length="19.35" width="3.20" shape="450.00,462.00 455.25,461.25 459.00,459.00 461.25,455.25 462.00,450.00"/>
    </edge>
    <edge id=":001_001_34" function="internal">
        <lane id=":001_001_34_0" index="0" speed="11.18" length="27.20" width="3.20" shape="450.00,462.00 477.20,462.00"/>
    </edge>
    <edge id=":001_001_35" function="internal">
        <lane id=":001_001_35_0" index="0" speed="10.10" length="23.22" width="3.20" shape="450.00,462.00 455.40,463.37 460.29,466.91 463.83,471.80 465.20,477.20"/>
    </edge>
    <edge id=":001_002_0" function="internal">
        <lane id=":001_002_0_0" index="0" speed="6.51" length="9.03" width="3.20" shape="455.60,704.40 455.25,701.95 454.20,700.20 452.45,699.15 450.00,698.80"/>
    </edge>
    <edge id=":001_002_1" function="internal">
        <lane id=":001_002_1_0" index="0" speed="11.18" length="27.20" width="3.20" shape="455.60,704.40 455.60,677.20"/>
    </edge>
    <edge id=":001_002_2" function="internal">
        <lane id=":001_002_2_0" index="0" speed="11.18" length="6.41" width="3.20" shape="455.60,704.40 457.43,698.25"/>
    </edge>
    <edge id=":001_002_3" function="internal">
        <lane id=":001_002_3_0" index="0" speed="8.00" length="5.93" width="3.20" shape="458.80,704.40 458.25,700.55 457.20,698.80"/>
    </edge>
    <edge id=":001_002_4" function="internal">
        <lane id=":001_002_4_0" index="0" speed="11.18" length="27.20" width="3.20" shape="458.80,704.40 458.80,677.20"/>
    </edge>
    <edge id=":001_002_5" function="internal">
        <lane id=":001_002_5_0" index="0" speed="11.07" length="11.48" width="3.20" shape="458.80,704.40 460.46,697.87 463.24,694.03"/>
    </edge>
    <edge id=":001_002_6" function="internal">
        <lane id=":001_002_6_0" index="0" speed="9.26" length="6.96" width="3.20" shape="462.00,704.40 461.25,699.15 460.40,697.73"/>
    </edge>
    <edge id=":001_002_7" function="internal">
        <lane id=":001_002_7_0" index="0" speed="11.18" length="27.20" width="3.20" shape="462.00,704.40 462.00,677.20"/>
    </edge>
    <edge id=":001_002_8" function="internal">
        <lane id=":001_002_8_0" index="0" speed="10.10" length="5.96" width="3.20" shape="462.00,704.40 463.37,699.00 463.60,698.68"/>
    </edge>
    <edge id=":001_002_36" function="internal">
        <lane id=":001_002_36_0" index="0" speed="11.18" length="26.08" width="3.20" shape="457.43,698.25 457.73,697.27 463.07,690.27 470.08,684.92 477.20,682.80"/>
    </edge>
    <edge id=":001_002_37" function="internal">
        <lane id=":001_002_37_0" index="0" speed="8.00" length="8.26" width="3.20" shape="457.20,698.80 456.60,697.80 453.85,696.15 450.00,695.60"/>
    </edge>
    <edge id=":001_002_38" function="internal">
        <lane id=":001_002_38_0" index="0" speed="11.07" length="16.62" width="3.20" shape="463.24,694.03 464.75,691.95 470.67,687.66 477.20,686.00"/>
    </edge>
    <edge id=":001_002_39" function="internal">
        <lane id=":001_002_39_0" index="0" speed="9.26" length="12.40" width="3.20" shape="460.40,697.73 459.00,695.40 455.25,693.15 450.00,692.40"/>
    </edge>
    <edge id=":001_002_40" function="internal">
        <lane id=":001_002_40_0" index="0" speed="10.10" length="17.25" width="3.20" shape="463.60,698.68 466.91,694.11 471.80,690.57 477.20,689.20"/>
    </edge>
    <edge id=":001_002_9" function="internal">
        <lane id=":001_002_9_0" index="0" speed="6.51" length="9.03" width="3.20" shape="477.20,698.80 474.75,699.15 473.00,700.20 471.95,701.95 471.60,704.40"/>
    </edge>
    <edge id=":001_002_10" function="internal">
        <lane id=":001_002_10_0" index="0" speed="11.18" length="27.20" width="3.20" shape="477.20,698.80 450.00,698.80"/>
    </edge>
    <edge id=":001_002_11" function="internal">
        <lane id=":001_002_11_0" index="0" speed="11.18" length="32.49" width="3.20" shape="477.20,698.80 470.08,696.67 463.07,691.33 457.73,684.32 455.60,677.20"/>
    </edge>
    <edge id=":001_002_12" function="internal">
        <lane id=":001_002_12_0" index="0" speed="8.00" length="14.19" width="3.20" shape="477.20,695.60 473.35,696.15 470.60,697.80 468.95,700.55 468.40,704.40"/>
    </edge>
    <edge id=":001_002_13" function="internal">
        <lane id=":001_002_13_0" index="0" speed="11.18" length="27.20" width="3.20" shape="477.20,695.60 450.00,695.60"/>
    </edge>
    <edge id=":001_002_14" function="internal">
        <lane id=":001_002_14_0" index="0" speed="11.07" length="28.10" width="3.20" shape="477.20,695.60 470.67,693.94 464.75,689.65 460.46,683.73 458.80,677.20"/>
    </edge>
    <edge id=":001_002_15" function="internal">
        <lane id=":001_002_15_0" index="0" speed="9.26" length="19.35" width="3.20" shape="477.20,692.40 471.95,693.15 468.20,695.40 465.95,699.15 465.20,704.40"/>
    </edge>
    <edge id=":001_002_16" function="internal">
        <lane id=":001_002_16_0" index="0" speed="11.18" length="27.20" width="3.20" shape="477.20,692.40 450.00,692.40"/>
    </edge>
    <edge id=":001_002_17" function="internal">
        <lane id=":001_002_17_0" index="0" speed="10.10" length="23.22" width="3.20" shape="477.20,692.40 471.80,691.03 466.91,687.49 463.37,682.60 462.00,677.20"/>
    </edge>
    <edge id=":001_002_18" function="internal">
        <lane id=":001_002_18_0" index="0" speed="6.51" length="9.03" width="3.20" shape="471.60,677.20 471.95,679.65 473.00,681.40 474.75,682.45 477.20,682.80"/>
    </edge>
    <edge id=":001_002_19" function="internal">
        <lane id=":001_002_19_0" index="0" speed="11.18" length="27.20" width="3.20" shape="471.60,677.20 471.60,704.40"/>
    </edge>
    <edge id=":001_002_20" function="internal">
        <lane id=":001_002_20_0" index="0" speed="11.18" length="6.41" width="3.20" shape="471.60,677.20 469.77,683.35"/>
    </edge>
    <edge id=":001_002_21" function="internal">
        <lane id=":001_002_21_0" index="0" speed="8.00" length="5.93" width="3.20" shape="468.40,677.20 468.95,681.05 470.00,682.80"/>
    </edge>
    <edge id=":001_002_22" function="internal">
        <lane id=":001_002_22_0" index="0" speed="11.18" length="27.20" width="3.20" shape="468.40,677.20 468.40,704.40"/>
    </edge>
    <edge id=":001_002_23" function="internal">
        <lane id=":001_002_23_0" index="0" speed="11.07" length="11.48" width="3.20" shape="468.40,677.20 466.74,683.73 463.96,687.57"/>
    </edge>
    <edge id=":001_002_24" function="internal">
        <lane id=":001_002_24_0" index="0" speed="9.26" length="6.96" width="3.20" shape="465.20,677.20 465.95,682.45 466.80,683.87"/>
    </edge>
    <edge id=":001_002_25" function="internal">
        <lane id=":001_002_25_0" index="0" speed="11.18" length="27.20" width="3.20" shape="465.20,677.20 465.20,704.40"/>
    </edge>
    <edge id=":001_002_26" function="internal">
        <lane id=":001_002_26_0" index="0" speed="10.10" length="5.96" width="3.20" shape="465.20,677.20 463.83,682.60 463.60,682.92"/>
    </edge>
    <edge id=":001_002_41" function="internal">
        <lane id=":001_002_41_0" index="0" speed="11.18" length="26.08" width="3.20" shape="469.77,683.35 469.48,684.32 464.13,691.33 457.13,696.67 450.00,698.80"/>
    </edge>
    <edge id=":001_002_42" function="internal">
        <lane id=":001_002_42_0" index="0" speed="8.00" length="8.26" width="3.20" shape="470.00,682.80 470.60,683.80 473.35,685.45 477.20,686.00"/>
    </edge>
    <edge id=":001_002_43" function="internal">
        <lane id=":001_002_43_0" index="0" speed="11.07" length="16.62" width="3.20" shape="463.96,687.57 462.45,689.65 456.53,693.94 450.00,695.60"/>
    </edge>
    <edge id=":001_002_44" function="internal">
        <lane id=":001_002_44_0" index="0" speed="9.26" length="12.40" width="3.20" shape="466.80,683.87 468.20,686.20 471.95,688.45 477.20,689.20"/>
    </edge>
    <edge id=":001_002_45" function="internal">
        <lane id=":001_002_45_0" index="0" speed="10.10" length="17.25" width="3.20" shape="463.60,682.92 460.29,687.49 455.40,691.03 450.00,692.40"/>
    </edge>
    <edge id=":001_002_27" function="internal">
        <lane id=":001_002_27_0" index="0" speed="6.51" length="9.03" width="3.20" shape="450.00,682.80 452.45,682.45 454.20,681.40 455.25,679.65 455.60,677.20"/>
    </edge>
    <edge id=":001_002_28" function="internal">
        <lane id=":001_002_28_0" index="0" speed="11.18" length="27.20" width="3.20" shape="450.00,682.80 477.20,682.80"/>
    </edge>
    <edge id=":001_002_29" function="internal">
        <lane id=":001_002_29_0" index="0" speed="11.18" length="32.49" width="3.20" shape="450.00,682.80 457.13,684.92 464.13,690.27 469.48,697.27 471.60,704.40"/>
    </edge>
    <edge id=":001_002_30" function="internal">
        <lane id=":001_002_30_0" index="0" speed="8.00" length="14.19" width="3.20" shape="450.00,686.00 453.85,685.45 456.60,683.80 458.25,681.05 458.80,677.20"/>
    </edge>
    <edge id=":001_002_31" function="internal">
        <lane id=":001_002_31_0" index="0" speed="11.18" length="27.20" width="3.20" shape="450.00,686.00 477.20,686.00"/>
    </edge>
    <edge id=":001_002_32" function="internal">
        <lane id=":001_002_32_0" index="0" speed="11.07" length="28.10" width="3.20" shape="450.00,686.00 456.53,687.66 462.45,691.95 466.74,697.87 468.40,704.40"/>
    </edge>
    <edge id=":001_002_33" function="internal">
        <lane id=":001_002_33_0" index="0" speed="9.26" length="19.35" width="3.20" shape="450.00,689.20 455.25,688.45 459.00,686.20 461.25,682.45 462.00,677.20"/>
    </edge>
    <edge id=":001_002_34" function="internal">
        <lane id=":001_002_34_0" index="0" speed="11.18" length="27.20" width="3.20" shape="450.00,689.20 477.20,689.20"/>
    </edge>
    <edge id=":001_002_35" function="internal">
        <lane id=":001_002_35_0" index="0" speed="10.10" length="23.22" width="3.20" shape="450.00,689.20 455.40,690.57 460.29,694.11 463.83,699.00 465.20,704.40"/>
    </edge>
    <edge id=":002_001_0" function="internal">
        <lane id=":002_001_0_0" index="0" speed="6.51" length="9.03" width="3.20" shape="682.80,477.20 682.45,474.75 681.40,473.00 679.65,471.95 677.20,471.60"/>
    </edge>
    <edge id=":002_001_1" function="internal">
        <lane id=":002_001_1_0" index="0" speed="11.18" length="27.20" width="3.20" shape="682.80,477.20 682.80,450.00"/>
    </edge>
    <edge id=":002_001_2" function="internal">
        <lane id=":002_001_2_0" index="0" speed="11.18" length="6.41" width="3.20" shape="682.80,477.20 684.63,471.05"/>
    </edge>
    <edge id=":002_001_3" function="internal">
        <lane id=":002_001_3_0" index="0" speed="8.00" length="5.93" width="3.20" shape="686.00,477.20 685.45,473.35 684.40,471.60"/>
    </edge>
    <edge id=":002_001_4" function="internal">
        <lane id=":002_001_4_0" index="0" speed="11.18" length="27.20" width="3.20" shape="686.00,477.20 686.00,450.00"/>
    </edge>
    <edge id=":002_001_5" function="internal">
        <lane id=":002_001_5_0" index="0" speed="11.07" length="11.48" width="3.20" shape="686.00,477.20 687.66,470.67 690.44,466.83"/>
    </edge>
    <edge id=":002_001_6" function="internal">
        <lane id=":002_001_6_0" index="0" speed="9.26" length="6.96" width="3.20" shape="689.20,477.20 688.45,471.95 687.60,470.53"/>
    </edge>
    <edge id=":002_001_7" function="internal">
        <lane id=":002_001_7_0" index="0" speed="11.18" length="27.20" width="3.20" shape="689.20,477.20 689.20,450.00"/>
    </edge>
    <edge id=":002_001_8" function="internal">
        <lane id=":002_001_8_0" index="0" speed="10.10" length="5.96" width="3.20" shape="689.20,477.20 690.57,471.80 690.80,471.48"/>
    </edge>
    <edge id=":002_001_36" function="internal">
        <lane id=":002_001_36_0" index="0" speed="11.18" length="26.08" width="3.20" shape="684.63,471.05 684.92,470.08 690.27,463.07 697.27,457.73 704.40,455.60"/>
    </edge>
    <edge id=":002_001_37" function="internal">
        <lane id=":002_001_37_0" index="0" speed="8.00" length="8.26" width="3.20" shape="684.40,471.60 683.80,470.60 681.05,468.95 677.20,468.40"/>
    </edge>
    <edge id=":002_001_38" function="internal">
        <lane id=":002_001_38_0" index="0" speed="11.07" length="16.62" width="3.20" shape="690.44,466.83 691.95,464.75 697.87,460.46 704.40,458.80"/>
    </edge>
    <edge id=":002_001_39" function="internal">
        <lane id=":002_001_39_0" index="0" speed="9.26" length="12.40" width="3.20" shape="687.60,470.53 686.20,468.20 682.45,465.95 677.20,465.20"/>
    </edge>
    <edge id=":002_001_40" function="internal">
        <lane id=":002_001_40_0" index="0" speed="10.10" length="17.25" width="3.20" shape="690.80,471.48 694.11,466.91 699.00,463.37 704.40,462.00"/>
    </edge>
    <edge id=":002_001_9" function="internal">
        <lane id=":002_001_9_0" index="0" speed="6.51" length="9.03" width="3.20" shape="704.40,471.60 701.95,471.95 700.20,473.00 699.15,474.75 698.80,477.20"/>
    </edge>
    <edge id=":002_001_10" function="internal">
        <lane id=":002_001_10_0" index="0" speed="11.18" length="27.20" width="3.20" shape="704.40,471.60 677.20,471.60"/>
    </edge>
    <edge id=":002_001_11" function="internal">
        <lane id=":002_001_11_0" index="0" speed="11.18" length="32.49" width="3.20" shape="704.40,471.60 697.27,469.48 690.27,464.13 684.92,457.13 682.80,450.00"/>
    </edge>
    <edge id=":002_001_12" function="internal">
        <lane id=":002_001_12_0" index="0" speed="8.00" length="14.19" width="3.20" shape="704.40,468.40 700.55,468.95 697.80,470.60 696.15,473.35 695.60,477.20"/>
    </edge>
    <edge id=":002_001_13" function="internal">
        <lane id=":002_001_13_0" index="0" speed="11.18" length="27.20" width="3.20" shape="704.40,468.40 677.20,468.40"/>
    </edge>
    <edge id=":002_001_14" function="internal">
        <lane id=":002_001_14_0" index="0" speed="11.07" length="28.10" width="3.20" shape="704.40,468.40 697.87,466.74 691.95,462.45 687.66,456.53 686.00,450.00"/>
    </edge>
    <edge id=":002_001_15" function="internal">
        <lane id=":002_001_15_0" index="0" speed="9.26" length="19.35" width="3.20" shape="704.40,465.20 699.15,465.95 695.40,468.20 693.15,471.95 692.40,477.20"/>
    </edge>
    <edge id=":002_001_16" function="internal">
        <lane id=":002_001_16_0" index="0" speed="11.18" length="27.20" width="3.20" shape="704.40,465.20 677.20,465.20"/>
    </edge>
    <edge id=":002_001_17" function="internal">
        <lane id=":002_001_17_0" index="0" speed="10.10" length="23.22" width="3.20" shape="704.40,465.20 699.00,463.83 694.11,460.29 690.57,455.40 689.20,450.00"/>
    </edge>
    <edge id=":002_001_18" function="internal">
        <lane id=":002_001_18_0" index="0" speed="6.51" length="9.03" width="3.20" shape="698.80,450.00 699.15,452.45 700.20,454.20 701.95,455.25 704.40,455.60"/>
    </edge>
    <edge id=":002_001_19" function="internal">
        <lane id=":002_001_19_0" index="0" speed="11.18" length="27.20" width="3.20" shape="698.80,450.00 698.80,477.20"/>
    </edge>
    <edge id=":002_001_20" function="internal">
        <lane id=":002_001_20_0" index="0" speed="11.18" length="6.41" width="3.20" shape="698.80,450.00 696.97,456.15"/>
    </edge>
    <edge id=":002_001_21" function="internal">
        <lane id=":002_001_21_0" index="0" speed="8.00" length="5.93" width="3.20" shape="695.60,450.00 696.15,453.85 697.20,455.60"/>
    </edge>
    <edge id=":002_001_22" function="internal">
        <lane id=":002_001_22_0" index="0" speed="11.18" length="27.20" width="3.20" shape="695.60,450.00 695.60,477.20"/>
    </edge>
    <edge id=":002_001_23" function="internal">
        <lane id=":002_001_23_0" index="0" speed="11.07" length="11.48" width="3.20" shape="695.60,450.00 693.94,456.53 691.16,460.37"/>
    </edge>
    <edge id=":002_001_24" function="internal">
        <lane id=":002_001_24_0" index="0" speed="9.26" length="6.96" width="3.20" shape="692.40,450.00 693.15,455.25 694.00,456.67"/>
    </edge>
    <edge id=":002_001_25" function="internal">
        <lane id=":002_001_25_0" index="0" speed="11.18" length="27.20" width="3.20" shape="692.40,450.00 692.40,477.20"/>
    </edge>
    <edge id=":002_001_26" function="internal">
        <lane id=":002_001_26_0" index="0" speed="10.10" length="5.96" width="3.20" shape="692.40,450.00 691.03,455.40 690.80,455.72"/>
    </edge>
    <edge id=":002_001_41" function="internal">
        <lane id=":002_001_41_0" index="0" speed="11.18" length="26.08" width="3.20" shape="696.97,456.15 696.67,457.13 691.33,464.13 684.32,469.48 677.20,471.60"/>
    </edge>
    <edge id=":002_001_42" function="internal">
        <lane id=":002_001_42_0" index="0" speed="8.00" length="8.26" width="3.20" shape="697.20,455.60 697.80,456.60 700.55,458.25 704.40,458.80"/>
    </edge>
    <edge id=":002_001_43" function="internal">
        <lane id=":002_001_43_0" index="0" speed="11.07" length="16.62" width="3.20" shape="691.16,460.37 689.65,462.45 683.73,466.74 677.20,468.40"/>
    </edge>
    <edge id=":002_001_44" function="internal">
        <lane id=":002_001_44_0" index="0" speed="9.26" length="12.40" width="3.20" shape="694.00,456.67 695.40,459.00 699.15,461.25 704.40,462.00"/>
    </edge>
    <edge id=":002_001_45" function="internal">
        <lane id=":002_001_45_0" index="0" speed="10.10" length="17.25" width="3.20" shape="690.80,455.72 687.49,460.29 682.60,463.83 677.20,465.20"/>
    </edge>
    <edge id=":002_001_27" function="internal">
        <lane id=":002_001_27_0" index="0" speed="6.51" length="9.03" width="3.20" shape="677.20,455.60 679.65,455.25 681.40,454.20 682.45,452.45 682.80,450.00"/>
    </edge>
    <edge id=":002_001_28" function="internal">
        <lane id=":002_001_28_0" index="0" speed="11.18" length="27.20" width="3.20" shape="677.20,455.60 704.40,455.60"/>
    </edge>
    <edge id=":002_001_29" function="internal">
        <lane id=":002_001_29_0" index="0" speed="11.18" length="32.49" width="3.20" shape="677.20,455.60 684.32,457.73 691.33,463.07 696.67,470.08 698.80,477.20"/>
    </edge>
    <edge id=":002_001_30" function="internal">
        <lane id=":002_001_30_0" index="0" speed="8.00" length="14.19" width="3.20" shape="677.20,458.80 681.05,458.25 683.80,456.60 685.45,453.85 686.00,450.00"/>
    </edge>
    <edge id=":002_001_31" function="internal">
        <lane id=":002_001_31_0" index="0" speed="11.18" length="27.20" width="3.20" shape="677.20,458.80 704.40,458.80"/>
    </edge>
    <edge id=":002_001_32" function="internal">
        <lane id=":002_001_32_0" index="0" speed="11.07" length="28.10" width="3.20" shape="677.20,458.80 683.73,460.46 689.65,464.75 693.94,470.67 695.60,477.20"/>
    </edge>
    <edge id=":002_001_33" function="internal">
        <lane id=":002_001_33_0" index="0" speed="9.26" length="19.35" width="3.20" shape="677.20,462.00 682.45,461.25 686.20,459.00 688.45,455.25 689.20,450.00"/>
    </edge>
    <edge id=":002_001_34" function="internal">
        <lane id=":002_001_34_0" index="0" speed="11.18" length="27.20" width="3.20" shape="677.20,462.00 704.40,462.00"/>
    </edge>
    <edge id=":002_001_35" function="internal">
        <lane id=":002_001_35_0" index="0" speed="10.10" length="23.22" width="3.20" shape="677.20,462.00 682.60,463.37 687.49,466.91 691.03,471.80 692.40,477.20"/>
    </edge>
    <edge id=":002_002_0" function="internal">
        <lane id=":002_002_0_0" index="0" speed="6.51" length="9.03" width="3.20" shape="682.80,704.40 682.45,701.95 681.40,700.20 679.65,699.15 677.20,698.80"/>
    </edge>
    <edge id=":002_002_1" function="internal">
        <lane id=":002_002_1_0" index="0" speed="11.18" length="27.20" width="3.20" shape="682.80,704.40 682.80,677.20"/>
    </edge>
    <edge id=":002_002_2" function="internal">
        <lane id=":002_002_2_0" index="0" speed="11.18" length="6.41" width="3.20" shape="682.80,704.40 684.63,698.25"/>
    </edge>
    <edge id=":002_002_3" function="internal">
        <lane id=":002_002_3_0" index="0" speed="8.00" length="5.93" width="3.20" shape="686.00,704.40 685.45,700.55 684.40,698.80"/>
    </edge>
    <edge id=":002_002_4" function="internal">