<routes>

	<vType id="car5" accel="200.0" decel="200.0" speedFactor="2" sigma="0.0" length="5" minGap="3.000000" maxSpeed="11.180000" tau="0.100000" carFollowModel="CACC" color="255,255,255"/>
	<vType id="car6" accel="200.0" decel="200.0" speedFactor="2" sigma="0.0" length="6" minGap="3.000000" maxSpeed="11.180000" tau="0.100000" carFollowModel="CACC" color="255,255,255"/>
	<vType id="car7" accel="200.0" decel="200.0" speedFactor="2" sigma="0.0" length="7" minGap="3.000000" maxSpeed="11.180000" tau="0.100000" carFollowModel="CACC" color="255,255,255"/>
	<vType id="car8" accel="200.0" decel="200.0" speedFactor="2" sigma="0.0" length="8" minGap="3.000000" maxSpeed="11.180000" tau="0.100000" carFollowModel="CACC" color="255,255,255"/>
	<vType id="car9" accel="200.0" decel="200.0" speedFactor="2" sigma="0.0" length="9" minGap="3.000000" maxSpeed="11.180000" tau="0.100000" carFollowModel="CACC" color="255,255,255"/>

	<route id="7" edges=" 001_001_1"/>
	<route id="5" edges=" 001_002_2"/>
	<route id="2" edges=" 002_001_3"/>
	<route id="0" edges=" 001_001_4"/>
	<route id="6" edges=" 001_002_1"/>
	<route id="4" edges=" 002_002_2"/>
	<route id="3" edges=" 002_002_3"/>
	<route id="1" edges=" 002_001_4"/>

	<vehicle id="car_0" type="car8" route="5" depart="1" departLane = "1" departSpeed="11.180000"/>
	<vehicle id="car_1" type="car9" route="7" depart="2" departLane = "0" departSpeed="11.180000"/>
	<vehicle id="car_2" type="car6" route="5" depart="9" departLane = "2" departSpeed="11.180000"/>
	<vehicle id="car_3" type="car5" route="1" depart="13" departLane = "0" departSpeed="11.180000"/>
	<vehicle id="car_4" type="car9" route="1" depart="18" departLane = "1" departSpeed="11.180000"/>
	<vehicle id="car_5" type="car7" route="7" depart="19" departLane = "0" departSpeed="11.180000"/>
	<vehicle id="car_6" type="car5" route="5" depart="20" departLane = "2" departSpeed="11.180000"/>
	<vehicle id="car_7" type="car6" route="3" depart="22" departLane = "1" departSpeed="11.180000"/>
	<vehicle id="car_8" type="car5" route="7" depart="29" departLane = "0" departSpeed="11.180000"/>
	<vehicle id="car_9" type="car6" route="0" depart="29" departLane = "2" departSpeed="11.180000"/>
	<vehicle id="car_10" type="car7" route="0" depart="31" departLane = "2" departSpeed="11.180000"/>
	<vehicle id="car_11" type="car6" route="7" depart="36" departLane = "1" departSpeed="11.180000"/>
	<vehicle id="car_12" type="car5" route="6" depart="36" departLane = "1" departSpeed="11.180000"/>
	<vehicle id="car_13" type="car9" route="5" depart="38" departLane = "2" departSpeed="11.180000"/>
	<vehicle id="car_14" type="car6" route="7" depart="40" departLane = "1" departSpeed="11.180000"/>
	<vehicle id="car_15" type="car7" route="1" depart="40" departLane = "0" departSpeed="11.180000"/>
	<vehicle id="car_16" type="car7" route="6" depart="41" departLane = "2" departSpeed="11.180000"/>
	<vehicle id="car_17" type="car6" route="5" depart="49" departLane = "2" departSpeed="11.180000"/>
	<vehicle id="car_18" type="car6" route="6" depart="51" departLane = "2" departSpeed="11.180000"/>
	<vehicle id="car_19" type="car7" route="3" depart="54" departLane = "2" departSpeed="11.180000"/>
	<vehicle id="car_20" type="car6" route="1" depart="60" departLane = "2" departSpeed="11.180000"/>
	<vehicle id="car_21" type="car9" route="6" depart="63" departLane = "2" departSpeed="11.180000"/>
	<vehicle id="car_22" type="car9" route="0" depart="67" departLane = "1" departSpeed="11.180000"/>
	<vehicle id="car_23" type="car9" route="1" depart="70" departLane = "0" departSpeed="11.180000"/>
	<vehicle id="car_24" type="car5" route="5" depart="74" departLane = "1" departSpeed="11.180000"/>
	<vehicle id="car_25" type="car8" route="5" depart="75" departLane = "0" departSpeed="11.180000"/>
	<vehicle id="car_26" type="car9" route="1" depart="75" departLane = "0" departSpeed="11.180000"/>
	<vehicle id="car_27" type="car7" route="7" depart="76" departLane = "0" departSpeed="11.180000"/>
	<vehicle id="car_28" type="car5" route="5" depart="76" departLane = "1" departSpeed="11.180000"/>
	<vehicle id="car_29" type="car9" route="5" depart="81" departLane = "0" departSpeed="11.180000"/>
	<vehicle id="car_30" type="car5" route="3" depart="87" departLane = "0" departSpeed="11.180000"/>
	<vehicle id="car_31" type="car7" route="7" depart="94" departLane = "1" departSpeed="11.180000"/>
	<vehicle id="car_32" type="car9" route="1" depart="95" departLane = "1" departSpeed="11.180000"/>
	<vehicle id="car_33" type="car7" route="1" depart="96" departLane = "2" departSpeed="11.180000"/>
	<vehicle id="car_34" type="car8" route="3" depart="99" departLane = "2" departSpeed="11.180000"/>
	<vehicle id="car_35" type="car7" route="7" depart="105" departLane = "0" departSpeed="11.180000"/>
	<vehicle id="car_36" type="car7" route="7" depart="111" departLane = "2" departSpeed="11.180000"/>
	<vehicle id="car_37" type="car8" route="5" depart="111" departLane = "1" departSpeed="11.180000"/>
	<vehicle id="car_38" type="car5" route="5" depart="117" departLane = "1" departSpeed="11.180000"/>
	<vehicle id="car_39" type="car7" route="5" depart="118" departLane = "1" departSpeed="11.180000"/>
	<vehicle id="car_40" type="car7" route="6" depart="120" departLane = "0" departSpeed="11.180000"/>
	<vehicle id="car_41" type="car9" route="5" depart="124" departLane = "1" departSpeed="11.180000"/>
	<vehicle id="car_42" type="car6" route="5" depart="127" departLane = "1" departSpeed="11.180000"/>
	<vehicle id="car_43" type="car8" route="5" depart="128" departLane = "0" departSpeed="11.180000"/>
	<vehicle id="car_44" type="car8" route="6" depart="136" departLane = "0" departSpeed="11.180000"/>
	<vehicle id="car_45" type="car5" route="1" depart="141" departLane = "2" departSpeed="11.180000"/>
	<vehicle id="car_46" type="car9" route="7" depart="142" departLane = "0" departSpeed="11.180000"/>
	<vehicle id="car_47" type="car7" route="5" depart="142" departLane = "1" departSpeed="11.180000"/>
	<vehicle id="car_48" type="car6" route="4" depart="145" departLane = "1" departSpeed="11.180000"/>
	<vehicle id="car_49" type="car5" route="5" depart="147" departLane = "0" departSpeed="11.180000"/>
	<vehicle id="car_50" type="car6" route="7" depart="156" departLane = "1" departSpeed="11.180000"/>
	<vehicle id="car_51" type="car5" route="5" depart="158" departLane = "1" departSpeed="11.180000"/>
	<vehicle id="car_52" type="car9" route="1" depart="158" departLane = "0" departSpeed="11.180000"/>
	<vehicle id="car_53" type="car8" route="7" depart="160" departLane = "0" departSpeed="11.180000"/>
	<vehicle id="car_54" type="car9" route="1" depart="161" departLane = "0" departSpeed="11.180000"/>
	<vehicle id="car_55" type="car6" route="0" depart="163" departLane = "1" departSpeed="11.180000"/>
	<vehicle id="car_56" type="car7" route="1" depart="168" departLane = "1" departSpeed="11.180000"/>
	<vehicle id="car_57" type="car9" route="5" depart="169" departLane = "2" departSpeed="11.180000"/>
	<vehicle id="car_58" type="car5" route="5" depart="178" departLane = "1" departSpeed="11.180000"/>
	<vehicle id="car_59" type="car9" route="3" depart="179" departLane = "2" departSpeed="11.180000"/>
	<vehicle id="car_60" type="car7" route="7" depart="180" departLane = "1" departSpeed="11.180000"/>
	<vehicle id="car_61" type="car7" route="6" depart="184" departLane = "1" departSpeed="11.180000"/>
	<vehicle id="car_62" type="car5" route="7" depart="189" departLane = "0" departSpeed="11.180000"/>
	<vehicle id="car_63" type="car5" route="0" depart="189" departLane = "2" departSpeed="11.180000"/>
	<vehicle id="car_64" type="car7" route="7" depart="192" departLane = "2" departSpeed="11.180000"/>
	<vehicle id="car_65" type="car8" route="5" depart="192" departLane = "0" departSpeed="11.180000"/>
	<vehicle id="car_66" type="car6" route="5" depart="198" departLane = "1" departSpeed="11.180000"/>
	<vehicle id="car_67" type="car5" route="5" depart="201" departLane = "2" departSpeed="11.180000"/>
	<vehicle id="car_68" type="car9" route="5" depart="205" departLane = "2" departSpeed="11.180000"/>
	<vehicle id="car_69" type="car6" route="5" depart="207" departLane = "2" departSpeed="11.180000"/>
	<vehicle id="car_70" type="car6" route="7" depart="211" departLane = "1" departSpeed="11.180000"/>
	<vehicle id="car_71" type="car8" route="5" depart="212" departLane = "1" departSpeed="11.180000"/>
	<vehicle id="car_72" type="car6" route="0" depart="214" departLane = "0" departSpeed="11.180000"/>
	<vehicle id="car_73" type="car9" route="6" depart="215" departLane = "2" departSpeed="11.180000"/>
	<vehicle id="car_74" type="car7" route="1" depart="215" departLane = "1" departSpeed="11.180000"/>
	<vehicle id="car_75" type="car7" route="5" depart="217" departLane = "2" departSpeed="11.180000"/>
	<vehicle id="car_76" type="car6" route="5" depart="230" departLane = "1" departSpeed="11.180000"/>
	<vehicle id="car_77" type="car7" route="1" depart="242" departLane = "0" departSpeed="11.180000"/>
	<vehicle id="car_78" type="car8" route="1" depart="245" departLane = "1" departSpeed="11.180000"/>
	<vehicle id="car_79" type="car9" route="5" depart="246" departLane = "0" departSpeed="11.180000"/>
	<vehicle id="car_80" type="car6" route="3" depart="248" departLane = "0" departSpeed="11.180000"/>
	<vehicle id="car_81" type="car5" route="1" depart="248" departLane = "1" departSpeed="11.180000"/>
	<vehicle id="car_82" type="car8" route="7" depart="252" departLane = "0" departSpeed="11.180000"/>
	<vehicle id="car_83" type="car6" route="5" depart="256" departLane = "1" departSpeed="11.180000"/>
	<vehicle id="car_84" type="car7" route="1" depart="258" departLane = "2" departSpeed="11.180000"/>
	<vehicle id="car_85" type="car9" route="1" depart="260" departLane = "2" departSpeed="11.180000"/>
	<vehicle id="car_86" type="car8" route="1" depart="270" departLane = "0" departSpeed="11.180000"/>
	<vehicle id="car_87" type="car6" route="5" depart="272" departLane = "2" departSpeed="11.180000"/>
	<vehicle id="car_88" type="car9" route="3" depart="273" departLane = "2" departSpeed="11.180000"/>
	<vehicle id="car_89" type="car8" route="5" depart="275" departLane = "0" departSpeed="11.180000"/>
	<vehicle id="car_90" type="car6" route="0" depart="280" departLane = "1" departSpeed="11.180000"/>
	<vehicle id="car_91" type="car6" route="5" depart="282" departLane = "1" departSpeed="11.180000"/>
	<vehicle id="car_92" type="car5" route="0" depart="283" departLane = "2" departSpeed="11.180000"/>
	<vehicle id="car_93" type="car5" route="7" depart="285" departLane = "2" departSpeed="11.180000"/>
	<vehicle id="car_94" type="car9" route="0" depart="296" departLane = "1" departSpeed="11.180000"/>
	<vehicle id="car_95" type="car7" route="0" depart="302" departLane = "0" departSpeed="11.180000"/>
	<vehicle id="car_96" type="car9" route="1" depart="302" departLane = "0" departSpeed="11.180000"/>
	<vehicle id="car_97" type="car7" route="0" depart="303" departLane = "0" departSpeed="11.180000"/>
	<vehicle id="car_98" type="car5" route="6" depart="308" departLane = "1" departSpeed="11.180000"/>
	<vehicle id="car_99" type="car9" route="4" depart="321" departLane = "1" departSpeed="11.180000"/>
	<vehicle id="car_100" type="car8" route="7" depart="322" departLane = "2" departSpeed="11.180000"/>
	<vehicle id="car_101" type="car8" route="7" depart="330" departLane = "0" departSpeed="11.180000"/>
	<vehicle id="car_102" type="car9" route="3" depart="332" departLane = "1" departSpeed="11.180000"/>
	<vehicle id="car_103" type="car5" route="7" depart="333" departLane = "2" departSpeed="11.180000"/>
	<vehicle id="car_104" type="car8" route="3" depart="334" departLane = "0" departSpeed="11.180000"/>
	<vehicle id="car_105" type="car8" route="7" depart="336" departLane = "1" departSpeed="11.180000"/>
	<vehicle id="car_106" type="car8" route="3" depart="337" departLane = "2" departSpeed="11.180000"/>
	<vehicle id="car_107" type="car7" route="5" depart="340" departLane = "1" departSpeed="11.180000"/>
	<vehicle id="car_108" type="car8" route="1" depart="341" departLane = "1" departSpeed="11.180000"/>
	<vehicle id="car_109" type="car8" route="5" depart="345" departLane = "0" departSpeed="11.180000"/>
	<vehicle id="car_110" type="car9" route="7" depart="350" departLane = "0" departSpeed="11.180000"/>
	<vehicle id="car_111" type="car7" route="5" depart="350" departLane = "0" departSpeed="11.180000"/>
	<vehicle id="car_112" type="car7" route="1" depart="351" departLane = "2" departSpeed="11.180000"/>
	<vehicle id="car_113" type="car8" route="0" depart="352" departLane = "1" departSpeed="11.180000"/>
	<vehicle id="car_114" type="car8" route="1" depart="356" departLane = "2" departSpeed="11.180000"/>
	<vehicle id="car_115" type="car6" route="0" depart="363" departLane = "1" departSpeed="11.180000"/>
	<vehicle id="car_116" type="car9" route="3" depart="366" departLane = "1" departSpeed="11.180000"/>
	<vehicle id="car_117" type="car6" route="5" depart="368" departLane = "2" departSpeed="11.180000"/>
	<vehicle id="car_118" type="car7" route="6" depart="371" departLane = "0" departSpeed="11.180000"/>
	<vehicle id="car_119" type="car7" route="1" depart="377" departLane = "2" departSpeed="11.180000"/>
	<vehicle id="car_120" type="car5" route="5" depart="385" departLane = "0" departSpeed="11.180000"/>
	<vehicle id="car_121" type="car6" route="4" depart="390" departLane = "2" departSpeed="11.180000"/>
	<vehicle id="car_122" type="car8" route="7" depart="391" departLane = "1" departSpeed="11.180000"/>
	<vehicle id="car_123" type="car5" route="7" depart="392" departLane = "2" departSpeed="11.180000"/>
	<vehicle id="car_124" type="car5" route="5" depart="394" departLane = "1" departSpeed="11.180000"/>
	<vehicle id="car_125" type="car6" route="3" depart="394" departLane = "1" departSpeed="11.180000"/>
	<vehicle id="car_126" type="car8" route="1" depart="397" departLane = "2" departSpeed="11.180000"/>
	<vehicle id="car_127" type="car6" route="5" depart="399" departLane = "2" departSpeed="11.180000"/>
	<vehicle id="car_128" type="car6" route="3" depart="399" departLane = "0" departSpeed="11.180000"/>
	<vehicle id="car_129" type="car8" route="7" depart="408" departLane = "1" departSpeed="11.180000"/>
	<vehicle id="car_130" type="car8" route="5" depart="412" departLane = "1" departSpeed="11.180000"/>
	<vehicle id="car_131" type="car5" route="7" depart="414" departLane = "1" departSpeed="11.180000"/>
	<vehicle id="car_132" type="car7" route="7" depart="416" departLane = "2" departSpeed="11.180000"/>
	<vehicle id="car_133" type="car6" route="5" depart="420" departLane = "2" departSpeed="11.180000"/>
	<vehicle id="car_134" type="car6" route="1" depart="425" departLane = "0" departSpeed="11.180000"/>
	<vehicle id="car_135" type="car6" route="0" depart="429" departLane = "1" departSpeed="11.180000"/>
	<vehicle id="car_136" type="car7" route="1" depart="429" departLane = "0" departSpeed="11.180000"/>
	<vehicle id="car_137" type="car9" route="0" depart="430" departLane = "2" departSpeed="11.180000"/>
	<vehicle id="car_138" type="car8" route="0" depart="431" departLane = "1" departSpeed="11.180000"/>
	<vehicle id="car_139" type="car8" route="4" depart="431" departLane = "1" departSpeed="11.180000"/>
	<vehicle id="car_140" type="car7" route="0" depart="436" departLane = "0" departSpeed="11.180000"/>
	<vehicle id="car_141" type="car8" route="5" depart="437" departLane = "2" departSpeed="11.180000"/>
	<vehicle id="car_142" type="car9" route="0" depart="445" departLane = "1" departSpeed="11.180000"/>
	<vehicle id="car_143" type="car7" route="5" depart="449" departLane = "0" departSpeed="11.180000"/>
	<vehicle id="car_144" type="car8" route="1" depart="450" departLane = "1" departSpeed="11.180000"/>
	<vehicle id="car_145" type="car6" route="7" depart="456" departLane = "0" departSpeed="11.180000"/>
	<vehicle id="car_146" type="car6" route="1" depart="456" departLane = "2" departSpeed="11.180000"/>
	<vehicle id="car_147" type="car5" route="7" depart="461" departLane = "1" departSpeed="11.180000"/>
	<vehicle id="car_148" type="car7" route="6" depart="464" departLane = "2" departSpeed="11.180000"/>
	<vehicle id="car_149" type="car5" route="3" depart="469" departLane = "0" departSpeed="11.180000"/>
	<vehicle id="car_150" type="car9" route="5" depart="473" departLane = "1" departSpeed="11.180000"/>
	<vehicle id="car_151" type="car7" route="7" depart="476" departLane = "1" departSpeed="11.180000"/>
	<vehicle id="car_152" type="car5" route="0" depart="478" departLane = "0" departSpeed="11.180000"/>
	<vehicle id="car_153" type="car8" route="1" depart="481" departLane = "2" departSpeed="11.180000"/>
	<vehicle id="car_154" type="car6" route="5" depart="491" departLane = "2" departSpeed="11.180000"/>
	<vehicle id="car_155" type="car9" route="1" depart="491" departLane = "2" departSpeed="11.180000"/>
	<vehicle id="car_156" type="car9" route="1" depart="495" departLane = "1" departSpeed="11.180000"/>
	<vehicle id="car_157" type="car5" route="1" depart="498" departLane = "2" departSpeed="11.180000"/>
	<vehicle id="car_158" type="car9" route="5" depart="507" departLane = "2" departSpeed="11.180000"/>
	<vehicle id="car_159" type="car5" route="5" depart="509" departLane = "1" departSpeed="11.180000"/>
	<vehicle id="car_160" type="car8" route="1" depart="516" departLane = "1" departSpeed="11.180000"/>
	<vehicle id="car_161" type="car6" route="5" depart="520" departLane = "1" departSpeed="11.180000"/>
	<vehicle id="car_162" type="car6" route="3" depart="530" departLane = "2" departSpeed="11.180000"/>
	<vehicle id="car_163" type="car6" route="5" depart="536" departLane = "1" departSpeed="11.180000"/>
	<vehicle id="car_164" type="car6" route="0" depart="536" departLane = "0" departSpeed="11.180000"/>
	<vehicle id="car_165" type="car7" route="5" depart="539" departLane = "2" departSpeed="11.180000"/>
	<vehicle id="car_166" type="car7" route="5" depart="540" departLane = "0" departSpeed="11.180000"/>
	<vehicle id="car_167" type="car9" route="3" depart="542" departLane = "1" departSpeed="11.180000"/>
	<vehicle id="car_168" type="car9" route="0" depart="544" departLane = "0" departSpeed="11.180000"/>
	<vehicle id="car_169" type="car6" route="5" depart="545" departLane = "2" departSpeed="11.180000"/>
	<vehicle id="car_170" type="car6" route="7" depart="549" departLane = "0" departSpeed="11.180000"/>
	<vehicle id="car_171" type="car6" route="0" depart="551" departLane = "2" departSpeed="11.180000"/>
	<vehicle id="car_172" type="car6" route="7" depart="555" departLane = "2" departSpeed="11.180000"/>
	<vehicle id="car_173" type="car7" route="6" depart="562" departLane = "0" departSpeed="11.180000"/>
	<vehicle id="car_174" type="car8" route="1" depart="570" departLane = "1" departSpeed="11.180000"/>
	<vehicle id="car_175" type="car5" route="5" depart="576" departLane = "0" departSpeed="11.180000"/>
	<vehicle id="car_176" type="car6" route="5" depart="577" departLane = "1" departSpeed="11.180000"/>
	<vehicle id="car_177" type="car9" route="1" depart="582" departLane = "1" departSpeed="11.180000"/>
	<vehicle id="car_178" type="car8" route="1" depart="585" departLane = "1" departSpeed="11.180000"/>
	<vehicle id="car_179" type="car5" route="1" depart="588" departLane = "1" departSpeed="11.180000"/>
	<vehicle id="car_180" type="car8" route="0" depart="589" departLane = "0" departSpeed="11.180000"/>
	<vehicle id="car_181" type="car6" route="3" depart="590" departLane = "1" departSpeed="11.180000"/>
	<vehicle id="car_182" type="car6" route="7" depart="594" departLane = "0" departSpeed="11.180000"/>
	<vehicle id="car_183" type="car6" route="7" depart="596" departLane = "1" departSpeed="11.180000"/>
	<vehicle id="car_184" type="car5" route="1" depart="603" departLane = "2" departSpeed="11.180000"/>
	<vehicle id="car_185" type="car9" route="5" depart="604" departLane = "2" departSpeed="11.180000"/>
	<vehicle id="car_186" type="car7" route="5" depart="607" departLane = "0" departSpeed="11.180000"/>
	<vehicle id="car_187" type="car8" route="5" depart="609" departLane = "2" departSpeed="11.180000"/>
	<vehicle id="car_188" type="car9" route="5" depart="612" departLane = "1" departSpeed="11.180000"/>
	<vehicle id="car_189" type="car5" route="0" depart="613" departLane = "1" departSpeed="11.180000"/>
	<vehicle id="car_190" type="car5" route="1" depart="623" departLane = "1" departSpeed="11.180000"/>
	<vehicle id="car_191" type="car6" route="7" depart="625" departLane = "1" departSpeed="11.180000"/>
	<vehicle id="car_192" type="car6" route="5" depart="628" departLane = "1" departSpeed="11.180000"/>
	<vehicle id="car_193" type="car9" route="3" depart="629" departLane = "2" departSpeed="11.180000"/>
	<vehicle id="car_194" type="car5" route="1" depart="637" departLane = "0" departSpeed="11.180000"/>
	<vehicle id="car_195" type="car8" route="4" depart="642" departLane = "2" departSpeed="11.180000"/>
	<vehicle id="car_196" type="car8" route="0" depart="648" departLane = "0" departSpeed="11.180000"/>
	<vehicle id="car_197" type="car6" route="1" depart="650" departLane = "2" departSpeed="11.180000"/>
	<vehicle id="car_198" type="car7" route="7" depart="652" departLane = "0" departSpeed="11.180000"/>
	<vehicle id="car_199" type="car9" route="0" depart="652" departLane = "0" departSpeed="11.180000"/>
	<vehicle id="car_200" type="car7" route="5" depart="654" departLane = "1" departSpeed="11.180000"/>
	<vehicle id="car_201" type="car5" route="7" depart="655" departLane = "1" departSpeed="11.180000"/>
	<vehicle id="car_202" type="car9" route="7" depart="661" departLane = "1" departSpeed="11.180000"/>
	<vehicle id="car_203" type="car6" route="0" depart="671" departLane = "1" departSpeed="11.180000"/>
	<vehicle id="car_204" type="car6" route="6" depart="673" departLane = "0" departSpeed="11.180000"/>
	<vehicle id="car_205" type="car5" route="7" depart="674" departLane = "0" departSpeed="11.180000"/>
	<vehicle id="car_206" type="car8" route="5" depart="683" departLane = "1" departSpeed="11.180000"/>
	<vehicle id="car_207" type="car6" route="5" depart="686" departLane = "2" departSpeed="11.180000"/>
	<vehicle id="car_208" type="car5" route="0" depart="686" departLane = "0" departSpeed="11.180000"/>
	<vehicle id="car_209" type="car9" route="5" depart="688" departLane = "0" departSpeed="11.180000"/>
	<vehicle id="car_210" type="car7" route="7" depart="689" departLane = "1" departSpeed="11.180000"/>
	<vehicle id="car_211" type="car8" route="3" depart="693" departLane = "2" departSpeed="11.180000"/>
	<vehicle id="car_212" type="car9" route="7" depart="703" departLane = "1" departSpeed="11.180000"/>
	<vehicle id="car_213" type="car5" route="0" depart="710" departLane = "1" departSpeed="11.180000"/>
	<vehicle id="car_214" type="car5" route="5" depart="712" departLane = "2" departSpeed="11.180000"/>
	<vehicle id="car_215" type="car9" route="6" depart="712" departLane = "2" departSpeed="11.180000"/>
	<vehicle id="car_216" type="car6" route="1" depart="718" departLane = "0" departSpeed="11.180000"/>
	<vehicle id="car_217" type="car9" route="5" depart="722" departLane = "2" departSpeed="11.180000"/>
	<vehicle id="car_218" type="car7" route="6" depart="722" departLane = "1" departSpeed="11.180000"/>
	<vehicle id="car_219" type="car6" route="5" depart="724" departLane = "1" departSpeed="11.180000"/>
	<vehicle id="car_220" type="car5" route="5" depart="729" departLane = "1" departSpeed="11.180000"/>
	<vehicle id="car_221" type="car6" route="5" depart="733" departLane = "1" departSpeed="11.180000"/>
	<vehicle id="car_222" type="car9" route="5" depart="734" departLane = "2" departSpeed="11.180000"/>
	<vehicle id="car_223" type="car8" route="1" depart="734" departLane = "2" departSpeed="11.180000"/>
	<vehicle id="car_224" type="car5" route="5" depart="736" departLane = "2" departSpeed="11.180000"/>
	<vehicle id="car_225" type="car8" route="0" depart="737" departLane = "0" departSpeed="11.180000"/>
	<vehicle id="car_226" type="car8" route="4" depart="738" departLane = "0" departSpeed="11.180000"/>
	<vehicle id="car_227" type="car6" route="7" depart="739" departLane = "2" departSpeed="11.180000"/>
	<vehicle id="car_228" type="car9" route="5" depart="739" departLane = "0" departSpeed="11.180000"/>
	<vehicle id="car_229" type="car5" route="5" depart="751" departLane = "2" departSpeed="11.180000"/>
	<vehicle id="car_230" type="car8" route="1" depart="751" departLane = "2" departSpeed="11.180000"/>
	<vehicle id="car_231" type="car8" route="3" depart="756" departLane = "0" departSpeed="11.180000"/>
	<vehicle id="car_232" type="car9" route="5" depart="758" departLane = "1" departSpeed="11.180000"/>
	<vehicle id="car_233" type="car8" route="5" depart="765" departLane = "0" departSpeed="11.180000"/>
	<vehicle id="car_234" type="car7" route="5" depart="766" departLane = "0" departSpeed="11.180000"/>
	<vehicle id="car_235" type="car9" route="7" depart="767" departLane = "2" departSpeed="11.180000"/>
	<vehicle id="car_236" type="car5" route="7" depart="768" departLane = "1" departSpeed="11.180000"/>
	<vehicle id="car_237" type="car7" route="5" depart="769" departLane = "1" departSpeed="11.180000"/>
	<vehicle id="car_238" type="car9" route="1" depart="774" departLane = "0" departSpeed="11.180000"/>
	<vehicle id="car_239" type="car9" route="5" depart="776" departLane = "2" departSpeed="11.180000"/>
	<vehicle id="car_240" type="car7" route="1" depart="777" departLane = "0" departSpeed="11.180000"/>
	<vehicle id="car_241" type="car8" route="5" depart="787" departLane = "1" departSpeed="11.180000"/>
	<vehicle id="car_242" type="car9" route="7" depart="794" departLane = "0" departSpeed="11.180000"/>
	<vehicle id="car_243" type="car7" route="5" depart="798" departLane = "2" departSpeed="11.180000"/>
	<vehicle id="car_244" type="car9" route="1" depart="798" departLane = "2" departSpeed="11.180000"/>
	<vehicle id="car_245" type="car7" route="7" depart="799" departLane = "2" departSpeed="11.180000"/>
	<vehicle id="car_246" type="car8" route="5" depart="799" departLane = "0" departSpeed="11.180000"/>
	<vehicle id="car_247" type="car7" route="0" depart="805" departLane = "2" departSpeed="11.180000"/>
	<vehicle id="car_248" type="car8" route="3" depart="809" departLane = "2" departSpeed="11.180000"/>
	<vehicle id="car_249" type="car8" route="3" depart="811" departLane = "1" departSpeed="11.180000"/>
	<vehicle id="car_250" type="car8" route="1" depart="811" departLane = "1" departSpeed="11.180000"/>
	<vehicle id="car_251" type="car8" route="0" depart="814" departLane = "2" departSpeed="11.180000"/>
	<vehicle id="car_252" type="car7" route="6" depart="815" departLane = "1" departSpeed="11.180000"/>
	<vehicle id="car_253" type="car6" route="5" depart="819" departLane = "1" departSpeed="11.180000"/>
	<vehicle id="car_254" type="car9" route="7" depart="827" departLane = "0" departSpeed="11.180000"/>
	<vehicle id="car_255" type="car8" route="5" depart="827" departLane = "2" departSpeed="11.180000"/>
	<vehicle id="car_256" type="car9" route="1" depart="835" departLane = "0" departSpeed="11.180000"/>
	<vehicle id="car_257" type="car8" route="0" depart="836" departLane = "2" departSpeed="11.180000"/>
	<vehicle id="car_258" type="car8" route="1" depart="838" departLane = "0" departSpeed="11.180000"/>
	<vehicle id="car_259" type="car7" route="1" depart="841" departLane = "2" departSpeed="11.180000"/>
	<vehicle id="car_260" type="car6" route="0" depart="843" departLane = "2" departSpeed="11.180000"/>
	<vehicle id="car_261" type="car8" route="5" depart="845" departLane = "0" departSpeed="11.180000"/>
	<vehicle id="car_262" type="car8" route="7" depart="855" departLane = "2" departSpeed="11.180000"/>
	<vehicle id="car_263" type="car5" route="1" depart="869" departLane = "1" departSpeed="11.180000"/>
	<vehicle id="car_264" type="car7" route="0" depart="877" departLane = "2" departSpeed="11.180000"/>
	<vehicle id="car_265" type="car7" route="7" depart="878" departLane = "1" departSpeed="11.180000"/>
	<vehicle id="car_266" type="car8" route="5" depart="879" departLane = "1" departSpeed="11.180000"/>
	<vehicle id="car_267" type="car6" route="1" depart="880" departLane = "0" departSpeed="11.180000"/>
	<vehicle id="car_268" type="car6" route="5" depart="881" departLane = "0" departSpeed="11.180000"/>
	<vehicle id="car_269" type="car6" route="0" depart="881" departLane = "1" departSpeed="11.180000"/>
	<vehicle id="car_270" type="car5" route="7" depart="884" departLane = "2" departSpeed="11.180000"/>
	<vehicle id="car_271" type="car7" route="7" depart="886" departLane = "0" departSpeed="11.180000"/>
	<vehicle id="car_272" type="car8" route="1" depart="886" departLane = "1" departSpeed="11.180000"/>
	<vehicle id="car_273" type="car7" route="1" depart="888" departLane = "0" departSpeed="11.180000"/>
	<vehicle id="car_274" type="car6" route="1" depart="896" departLane = "0" departSpeed="11.180000"/>
	<vehicle id="car_275" type="car5" route="5" depart="898" departLane = "1" departSpeed="11.180000"/>
	<vehicle id="car_276" type="car6" route="5" depart="904" departLane = "0" departSpeed="11.180000"/>
	<vehicle id="car_277" type="car9" route="7" depart="905" departLane = "1" departSpeed="11.180000"/>
	<vehicle id="car_278" type="car9" route="7" depart="906" departLane = "0" departSpeed="11.180000"/>
	<vehicle id="car_279" type="car5" route="4" depart="914" departLane = "0" departSpeed="11.180000"/>
	<vehicle id="car_280" type="car9" route="5" depart="916" departLane = "2" departSpeed="11.180000"/>
	<vehicle id="car_281" type="car5" route="4" depart="927" departLane = "2" departSpeed="11.180000"/>
	<vehicle id="car_282" type="car5" route="1" depart="927" departLane = "2" departSpeed="11.180000"/>
	<vehicle id="car_283" type="car8" route="0" depart="929" departLane = "2" departSpeed="11.180000"/>
	<vehicle id="car_284" type="car6" route="5" depart="935" departLane = "2" departSpeed="11.180000"/>
	<vehicle id="car_285" type="car9" route="6" depart="947" departLane = "2" departSpeed="11.180000"/>