<?xml version="1.0" encoding="UTF-8"?>

<!-- generated on 06/15/21 11:07:58 by Eclipse SUMO netedit Version 1.8.0
<configuration xmlns:xsi="http://www.w3.org/2001/XMLSchema-instance" xsi:noNamespaceSchemaLocation="http://sumo.dlr.de/xsd/netconvertConfiguration.xsd">

    <input>
        <sumo-net-file value="D:\Google%20Drive\NYU\V2X\UDTA\paper_v2\code\SUMO_env_cpp\data\tmp\lane2by2.net.xml"/>
    </input>

    <output>
        <output-file value="D:\Google%20Drive\NYU\V2X\UDTA\paper_v2\code\SUMO_env_cpp\data\tmp\lane2by2.net.xml"/>
    </output>

    <processing>
        <geometry.min-radius.fix.railways value="false"/>
        <geometry.max-grade.fix value="false"/>
        <offset.disable-normalization value="true"/>
        <lefthand value="false"/>
    </processing>

    <junctions>
        <no-turnarounds value="true"/>
        <junctions.corner-detail value="5"/>
        <junctions.limit-turn-speed value="5.5"/>
        <rectangular-lane-cut value="false"/>
    </junctions>

    <pedestrian>
        <walkingareas value="false"/>
    </pedestrian>

    <report>
        <aggregate-warnings value="5"/>
    </report>

</configuration>
-->

<net version="1.6" junctionCornerDetail="5" limitTurnSpeed="5.50" xmlns:xsi="http://www.w3.org/2001/XMLSchema-instance" xsi:noNamespaceSchemaLocation="http://sumo.dlr.de/xsd/net_file.xsd">

    <location netOffset="286.40,286.40" convBoundary="0.00,0.00,1254.40,1254.40" origBoundary="-286.40,-286.40,968.00,968.00" projParameter="!"/>

    <edge id=":001_001_0" function="internal">
        <lane id=":001_001_0_0" index="0" speed="6.51" length="9.03" width="3.20" shape="505.60,527.20 505.25,524.75 504.20,523.00 502.45,521.95 500.00,521.60"/>
    </edge>
    <edge id=":001_001_1" function="internal">
        <lane id=":001_001_1_0" index="0" speed="11.18" length="27.20" width="3.20" shape="505.60,527.20 505.60,500.00"/>
    </edge>
    <edge id=":001_001_2" function="internal">
        <lane id=":001_001_2_0" index="0" speed="11.18" length="6.41" width="3.20" shape="505.60,527.20 507.43,521.05"/>
    </edge>
    <edge id=":001_001_3" function="internal">
        <lane id=":001_001_3_0" index="0" speed="8.00" length="5.93" width="3.20" shape="508.80,527.20 508.25,523.35 507.20,521.60"/>
    </edge>
    <edge id=":001_001_4" function="internal">
        <lane id=":001_001_4_0" index="0" speed="11.18" length="27.20" width="3.20" shape="508.80,527.20 508.80,500.00"/>
    </edge>
    <edge id=":001_001_5" function="internal">
        <lane id=":001_001_5_0" index="0" speed="11.07" length="11.48" width="3.20" shape="508.80,527.20 510.46,520.67 513.24,516.83"/>
    </edge>
    <edge id=":001_001_6" function="internal">
        <lane id=":001_001_6_0" index="0" speed="9.26" length="6.96" width="3.20" shape="512.00,527.20 511.25,521.95 510.40,520.53"/>
    </edge>
    <edge id=":001_001_7" function="internal">
        <lane id=":001_001_7_0" index="0" speed="11.18" length="27.20" width="3.20" shape="512.00,527.20 512.00,500.00"/>
    </edge>
    <edge id=":001_001_8" function="internal">
        <lane id=":001_001_8_0" index="0" speed="10.10" length="5.96" width="3.20" shape="512.00,527.20 513.37,521.80 513.60,521.48"/>
    </edge>
    <edge id=":001_001_36" function="internal">
        <lane id=":001_001_36_0" index="0" speed="11.18" length="26.08" width="3.20" shape="507.43,521.05 507.73,520.08 513.07,513.07 520.08,507.73 527.20,505.60"/>
    </edge>
    <edge id=":001_001_37" function="internal">
        <lane id=":001_001_37_0" index="0" speed="8.00" length="8.26" width="3.20" shape="507.20,521.60 506.60,520.60 503.85,518.95 500.00,518.40"/>
    </edge>
    <edge id=":001_001_38" function="internal">
        <lane id=":001_001_38_0" index="0" speed="11.07" length="16.62" width="3.20" shape="513.24,516.83 514.75,514.75 520.67,510.46 527.20,508.80"/>
    </edge>
    <edge id=":001_001_39" function="internal">
        <lane id=":001_001_39_0" index="0" speed="9.26" length="12.40" width="3.20" shape="510.40,520.53 509.00,518.20 505.25,515.95 500.00,515.20"/>
    </edge>
    <edge id=":001_001_40" function="internal">
        <lane id=":001_001_40_0" index="0" speed="10.10" length="17.25" width="3.20" shape="513.60,521.48 516.91,516.91 521.80,513.37 527.20,512.00"/>
    </edge>
    <edge id=":001_001_9" function="internal">
        <lane id=":001_001_9_0" index="0" speed="6.51" length="9.03" width="3.20" shape="527.20,521.60 524.75,521.95 523.00,523.00 521.95,524.75 521.60,527.20"/>
    </edge>
    <edge id=":001_001_10" function="internal">
        <lane id=":001_001_10_0" index="0" speed="11.18" length="27.20" width="3.20" shape="527.20,521.60 500.00,521.60"/>
    </edge>
    <edge id=":001_001_11" function="internal">
        <lane id=":001_001_11_0" index="0" speed="11.18" length="32.49" width="3.20" shape="527.20,521.60 520.08,519.48 513.07,514.13 507.73,507.13 505.60,500.00"/>
    </edge>
    <edge id=":001_001_12" function="internal">
        <lane id=":001_001_12_0" index="0" speed="8.00" length="14.19" width="3.20" shape="527.20,518.40 523.35,518.95 520.60,520.60 518.95,523.35 518.40,527.20"/>
    </edge>
    <edge id=":001_001_13" function="internal">
        <lane id=":001_001_13_0" index="0" speed="11.18" length="27.20" width="3.20" shape="527.20,518.40 500.00,518.40"/>
    </edge>
    <edge id=":001_001_14" function="internal">
        <lane id=":001_001_14_0" index="0" speed="11.07" length="28.10" width="3.20" shape="527.20,518.40 520.67,516.74 514.75,512.45 510.46,506.53 508.80,500.00"/>
    </edge>
    <edge id=":001_001_15" function="internal">
        <lane id=":001_001_15_0" index="0" speed="9.26" length="19.35" width="3.20" shape="527.20,515.20 521.95,515.95 518.20,518.20 515.95,521.95 515.20,527.20"/>
    </edge>
    <edge id=":001_001_16" function="internal">
        <lane id=":001_001_16_0" index="0" speed="11.18" length="27.20" width="3.20" shape="527.20,515.20 500.00,515.20"/>
    </edge>
    <edge id=":001_001_17" function="internal">
        <lane id=":001_001_17_0" index="0" speed="10.10" length="23.22" width="3.20" shape="527.20,515.20 521.80,513.83 516.91,510.29 513.37,505.40 512.00,500.00"/>
    </edge>
    <edge id=":001_001_18" function="internal">
        <lane id=":001_001_18_0" index="0" speed="6.51" length="9.03" width="3.20" shape="521.60,500.00 521.95,502.45 523.00,504.20 524.75,505.25 527.20,505.60"/>
    </edge>
    <edge id=":001_001_19" function="internal">
        <lane id=":001_001_19_0" index="0" speed="11.18" length="27.20" width="3.20" shape="521.60,500.00 521.60,527.20"/>
    </edge>
    <edge id=":001_001_20" function="internal">
        <lane id=":001_001_20_0" index="0" speed="11.18" length="6.41" width="3.20" shape="521.60,500.00 519.77,506.15"/>
    </edge>
    <edge id=":001_001_21" function="internal">
        <lane id=":001_001_21_0" index="0" speed="8.00" length="5.93" width="3.20" shape="518.40,500.00 518.95,503.85 520.00,505.60"/>
    </edge>
    <edge id=":001_001_22" function="internal">
        <lane id=":001_001_22_0" index="0" speed="11.18" length="27.20" width="3.20" shape="518.40,500.00 518.40,527.20"/>
    </edge>
    <edge id=":001_001_23" function="internal">
        <lane id=":001_001_23_0" index="0" speed="11.07" length="11.48" width="3.20" shape="518.40,500.00 516.74,506.53 513.96,510.37"/>
    </edge>
    <edge id=":001_001_24" function="internal">
        <lane id=":001_001_24_0" index="0" speed="9.26" length="6.96" width="3.20" shape="515.20,500.00 515.95,505.25 516.80,506.67"/>
    </edge>
    <edge id=":001_001_25" function="internal">
        <lane id=":001_001_25_0" index="0" speed="11.18" length="27.20" width="3.20" shape="515.20,500.00 515.20,527.20"/>
    </edge>
    <edge id=":001_001_26" function="internal">
        <lane id=":001_001_26_0" index="0" speed="10.10" length="5.96" width="3.20" shape="515.20,500.00 513.83,505.40 513.60,505.72"/>
    </edge>
    <edge id=":001_001_41" function="internal">
        <lane id=":001_001_41_0" index="0" speed="11.18" length="26.08" width="3.20" shape="519.77,506.15 519.48,507.13 514.13,514.13 507.13,519.48 500.00,521.60"/>
    </edge>
    <edge id=":001_001_42" function="internal">
        <lane id=":001_001_42_0" index="0" speed="8.00" length="8.26" width="3.20" shape="520.00,505.60 520.60,506.60 523.35,508.25 527.20,508.80"/>
    </edge>
    <edge id=":001_001_43" function="internal">
        <lane id=":001_001_43_0" index="0" speed="11.07" length="16.62" width="3.20" shape="513.96,510.37 512.45,512.45 506.53,516.74 500.00,518.40"/>
    </edge>
    <edge id=":001_001_44" function="internal">
        <lane id=":001_001_44_0" index="0" speed="9.26" length="12.40" width="3.20" shape="516.80,506.67 518.20,509.00 521.95,511.25 527.20,512.00"/>
    </edge>
    <edge id=":001_001_45" function="internal">
        <lane id=":001_001_45_0" index="0" speed="10.10" length="17.25" width="3.20" shape="513.60,505.72 510.29,510.29 505.40,513.83 500.00,515.20"/>
    </edge>
    <edge id=":001_001_27" function="internal">
        <lane id=":001_001_27_0" index="0" speed="6.51" length="9.03" width="3.20" shape="500.00,505.60 502.45,505.25 504.20,504.20 505.25,502.45 505.60,500.00"/>
    </edge>
    <edge id=":001_001_28" function="internal">
        <lane id=":001_001_28_0" index="0" speed="11.18" length="27.20" width="3.20" shape="500.00,505.60 527.20,505.60"/>
    </edge>
    <edge id=":001_001_29" function="internal">
        <lane id=":001_001_29_0" index="0" speed="11.18" length="32.49" width="3.20" shape="500.00,505.60 507.13,507.73 514.13,513.07 519.48,520.08 521.60,527.20"/>
    </edge>
    <edge id=":001_001_30" function="internal">
        <lane id=":001_001_30_0" index="0" speed="8.00" length="14.19" width="3.20" shape="500.00,508.80 503.85,508.25 506.60,506.60 508.25,503.85 508.80,500.00"/>
    </edge>
    <edge id=":001_001_31" function="internal">
        <lane id=":001_001_31_0" index="0" speed="11.18" length="27.20" width="3.20" shape="500.00,508.80 527.20,508.80"/>
    </edge>
    <edge id=":001_001_32" function="internal">
        <lane id=":001_001_32_0" index="0" speed="11.07" length="28.10" width="3.20" shape="500.00,508.80 506.53,510.46 512.45,514.75 516.74,520.67 518.40,527.20"/>
    </edge>
    <edge id=":001_001_33" function="internal">
        <lane id=":001_001_33_0" index="0" speed="9.26" length="19.35" width="3.20" shape="500.00,512.00 505.25,511.25 509.00,509.00 511.25,505.25 512.00,500.00"/>
    </edge>
    <edge id=":001_001_34" function="internal">
        <lane id=":001_001_34_0" index="0" speed="11.18" length="27.20" width="3.20" shape="500.00,512.00 527.20,512.00"/>
    </edge>
    <edge id=":001_001_35" function="internal">
        <lane id=":001_001_35_0" index="0" speed="10.10" length="23.22" width="3.20" shape="500.00,512.00 505.40,513.37 510.29,516.91 513.83,521.80 515.20,527.20"/>
    </edge>
    <edge id=":001_002_0" function="internal">
        <lane id=":001_002_0_0" index="0" speed="6.51" length="9.03" width="3.20" shape="505.60,754.40 505.25,751.95 504.20,750.20 502.45,749.15 500.00,748.80"/>
    </edge>
    <edge id=":001_002_1" function="internal">
        <lane id=":001_002_1_0" index="0" speed="11.18" length="27.20" width="3.20" shape="505.60,754.40 505.60,727.20"/>
    </edge>
    <edge id=":001_002_2" function="internal">
        <lane id=":001_002_2_0" index="0" speed="11.18" length="6.41" width="3.20" shape="505.60,754.40 507.43,748.25"/>
    </edge>
    <edge id=":001_002_3" function="internal">
        <lane id=":001_002_3_0" index="0" speed="8.00" length="5.93" width="3.20" shape="508.80,754.40 508.25,750.55 507.20,748.80"/>
    </edge>
    <edge id=":001_002_4" function="internal">
        <lane id=":001_002_4_0" index="0" speed="11.18" length="27.20" width="3.20" shape="508.80,754.40 508.80,727.20"/>
    </edge>
    <edge id=":001_002_5" function="internal">
        <lane id=":001_002_5_0" index="0" speed="11.07" length="11.48" width="3.20" shape="508.80,754.40 510.46,747.87 513.24,744.03"/>
    </edge>
    <edge id=":001_002_6" function="internal">
        <lane id=":001_002_6_0" index="0" speed="9.26" length="6.96" width="3.20" shape="512.00,754.40 511.25,749.15 510.40,747.73"/>
    </edge>
    <edge id=":001_002_7" function="internal">
        <lane id=":001_002_7_0" index="0" speed="11.18" length="27.20" width="3.20" shape="512.00,754.40 512.00,727.20"/>
    </edge>
    <edge id=":001_002_8" function="internal">
        <lane id=":001_002_8_0" index="0" speed="10.10" length="5.96" width="3.20" shape="512.00,754.40 513.37,749.00 513.60,748.68"/>
    </edge>
    <edge id=":001_002_36" function="internal">
        <lane id=":001_002_36_0" index="0" speed="11.18" length="26.08" width="3.20" shape="507.43,748.25 507.73,747.27 513.07,740.27 520.08,734.92 527.20,732.80"/>
    </edge>
    <edge id=":001_002_37" function="internal">
        <lane id=":001_002_37_0" index="0" speed="8.00" length="8.26" width="3.20" shape="507.20,748.80 506.60,747.80 503.85,746.15 500.00,745.60"/>
    </edge>
    <edge id=":001_002_38" function="internal">
        <lane id=":001_002_38_0" index="0" speed="11.07" length="16.62" width="3.20" shape="513.24,744.03 514.75,741.95 520.67,737.66 527.20,736.00"/>
    </edge>
    <edge id=":001_002_39" function="internal">
        <lane id=":001_002_39_0" index="0" speed="9.26" length="12.40" width="3.20" shape="510.40,747.73 509.00,745.40 505.25,743.15 500.00,742.40"/>
    </edge>
    <edge id=":001_002_40" function="internal">
        <lane id=":001_002_40_0" index="0" speed="10.10" length="17.25" width="3.20" shape="513.60,748.68 516.91,744.11 521.80,740.57 527.20,739.20"/>
    </edge>
    <edge id=":001_002_9" function="internal">
        <lane id=":001_002_9_0" index="0" speed="6.51" length="9.03" width="3.20" shape="527.20,748.80 524.75,749.15 523.00,750.20 521.95,751.95 521.60,754.40"/>
    </edge>
    <edge id=":001_002_10" function="internal">
        <lane id=":001_002_10_0" index="0" speed="11.18" length="27.20" width="3.20" shape="527.20,748.80 500.00,748.80"/>
    </edge>
    <edge id=":001_002_11" function="internal">
        <lane id=":001_002_11_0" index="0" speed="11.18" length="32.49" width="3.20" shape="527.20,748.80 520.08,746.67 513.07,741.33 507.73,734.32 505.60,727.20"/>
    </edge>
    <edge id=":001_002_12" function="internal">
        <lane id=":001_002_12_0" index="0" speed="8.00" length="14.19" width="3.20" shape="527.20,745.60 523.35,746.15 520.60,747.80 518.95,750.55 518.40,754.40"/>
    </edge>
    <edge id=":001_002_13" function="internal">
        <lane id=":001_002_13_0" index="0" speed="11.18" length="27.20" width="3.20" shape="527.20,745.60 500.00,745.60"/>
    </edge>
    <edge id=":001_002_14" function="internal">
        <lane id=":001_002_14_0" index="0" speed="11.07" length="28.10" width="3.20" shape="527.20,745.60 520.67,743.94 514.75,739.65 510.46,733.73 508.80,727.20"/>
    </edge>
    <edge id=":001_002_15" function="internal">
        <lane id=":001_002_15_0" index="0" speed="9.26" length="19.35" width="3.20" shape="527.20,742.40 521.95,743.15 518.20,745.40 515.95,749.15 515.20,754.40"/>
    </edge>
    <edge id=":001_002_16" function="internal">
        <lane id=":001_002_16_0" index="0" speed="11.18" length="27.20" width="3.20" shape="527.20,742.40 500.00,742.40"/>
    </edge>
    <edge id=":001_002_17" function="internal">
        <lane id=":001_002_17_0" index="0" speed="10.10" length="23.22" width="3.20" shape="527.20,742.40 521.80,741.03 516.91,737.49 513.37,732.60 512.00,727.20"/>
    </edge>
    <edge id=":001_002_18" function="internal">
        <lane id=":001_002_18_0" index="0" speed="6.51" length="9.03" width="3.20" shape="521.60,727.20 521.95,729.65 523.00,731.40 524.75,732.45 527.20,732.80"/>
    </edge>
    <edge id=":001_002_19" function="internal">
        <lane id=":001_002_19_0" index="0" speed="11.18" length="27.20" width="3.20" shape="521.60,727.20 521.60,754.40"/>
    </edge>
    <edge id=":001_002_20" function="internal">
        <lane id=":001_002_20_0" index="0" speed="11.18" length="6.41" width="3.20" shape="521.60,727.20 519.77,733.35"/>
    </edge>
    <edge id=":001_002_21" function="internal">
        <lane id=":001_002_21_0" index="0" speed="8.00" length="5.93" width="3.20" shape="518.40,727.20 518.95,731.05 520.00,732.80"/>
    </edge>
    <edge id=":001_002_22" function="internal">
        <lane id=":001_002_22_0" index="0" speed="11.18" length="27.20" width="3.20" shape="518.40,727.20 518.40,754.40"/>
    </edge>
    <edge id=":001_002_23" function="internal">
        <lane id=":001_002_23_0" index="0" speed="11.07" length="11.48" width="3.20" shape="518.40,727.20 516.74,733.73 513.96,737.57"/>
    </edge>
    <edge id=":001_002_24" function="internal">
        <lane id=":001_002_24_0" index="0" speed="9.26" length="6.96" width="3.20" shape="515.20,727.20 515.95,732.45 516.80,733.87"/>
    </edge>
    <edge id=":001_002_25" function="internal">
        <lane id=":001_002_25_0" index="0" speed="11.18" length="27.20" width="3.20" shape="515.20,727.20 515.20,754.40"/>
    </edge>
    <edge id=":001_002_26" function="internal">
        <lane id=":001_002_26_0" index="0" speed="10.10" length="5.96" width="3.20" shape="515.20,727.20 513.83,732.60 513.60,732.92"/>
    </edge>
    <edge id=":001_002_41" function="internal">
        <lane id=":001_002_41_0" index="0" speed="11.18" length="26.08" width="3.20" shape="519.77,733.35 519.48,734.32 514.13,741.33 507.13,746.67 500.00,748.80"/>
    </edge>
    <edge id=":001_002_42" function="internal">
        <lane id=":001_002_42_0" index="0" speed="8.00" length="8.26" width="3.20" shape="520.00,732.80 520.60,733.80 523.35,735.45 527.20,736.00"/>
    </edge>
    <edge id=":001_002_43" function="internal">
        <lane id=":001_002_43_0" index="0" speed="11.07" length="16.62" width="3.20" shape="513.96,737.57 512.45,739.65 506.53,743.94 500.00,745.60"/>
    </edge>
    <edge id=":001_002_44" function="internal">
        <lane id=":001_002_44_0" index="0" speed="9.26" length="12.40" width="3.20" shape="516.80,733.87 518.20,736.20 521.95,738.45 527.20,739.20"/>
    </edge>
    <edge id=":001_002_45" function="internal">
        <lane id=":001_002_45_0" index="0" speed="10.10" length="17.25" width="3.20" shape="513.60,732.92 510.29,737.49 505.40,741.03 500.00,742.40"/>
    </edge>
    <edge id=":001_002_27" function="internal">
        <lane id=":001_002_27_0" index="0" speed="6.51" length="9.03" width="3.20" shape="500.00,732.80 502.45,732.45 504.20,731.40 505.25,729.65 505.60,727.20"/>
    </edge>
    <edge id=":001_002_28" function="internal">
        <lane id=":001_002_28_0" index="0" speed="11.18" length="27.20" width="3.20" shape="500.00,732.80 527.20,732.80"/>
    </edge>
    <edge id=":001_002_29" function="internal">
        <lane id=":001_002_29_0" index="0" speed="11.18" length="32.49" width="3.20" shape="500.00,732.80 507.13,734.92 514.13,740.27 519.48,747.27 521.60,754.40"/>
    </edge>
    <edge id=":001_002_30" function="internal">
        <lane id=":001_002_30_0" index="0" speed="8.00" length="14.19" width="3.20" shape="500.00,736.00 503.85,735.45 506.60,733.80 508.25,731.05 508.80,727.20"/>
    </edge>
    <edge id=":001_002_31" function="internal">
        <lane id=":001_002_31_0" index="0" speed="11.18" length="27.20" width="3.20" shape="500.00,736.00 527.20,736.00"/>
    </edge>
    <edge id=":001_002_32" function="internal">
        <lane id=":001_002_32_0" index="0" speed="11.07" length="28.10" width="3.20" shape="500.00,736.00 506.53,737.66 512.45,741.95 516.74,747.87 518.40,754.40"/>
    </edge>
    <edge id=":001_002_33" function="internal">
        <lane id=":001_002_33_0" index="0" speed="9.26" length="19.35" width="3.20" shape="500.00,739.20 505.25,738.45 509.00,736.20 511.25,732.45 512.00,727.20"/>
    </edge>
    <edge id=":001_002_34" function="internal">
        <lane id=":001_002_34_0" index="0" speed="11.18" length="27.20" width="3.20" shape="500.00,739.20 527.20,739.20"/>
    </edge>
    <edge id=":001_002_35" function="internal">
        <lane id=":001_002_35_0" index="0" speed="10.10" length="23.22" width="3.20" shape="500.00,739.20 505.40,740.57 510.29,744.11 513.83,749.00 515.20,754.40"/>
    </edge>
    <edge id=":002_001_0" function="internal">
        <lane id=":002_001_0_0" index="0" speed="6.51" length="9.03" width="3.20" shape="732.80,527.20 732.45,524.75 731.40,523.00 729.65,521.95 727.20,521.60"/>
    </edge>
    <edge id=":002_001_1" function="internal">
        <lane id=":002_001_1_0" index="0" speed="11.18" length="27.20" width="3.20" shape="732.80,527.20 732.80,500.00"/>
    </edge>
    <edge id=":002_001_2" function="internal">
        <lane id=":002_001_2_0" index="0" speed="11.18" length="6.41" width="3.20" shape="732.80,527.20 734.63,521.05"/>
    </edge>
    <edge id=":002_001_3" function="internal">
        <lane id=":002_001_3_0" index="0" speed="8.00" length="5.93" width="3.20" shape="736.00,527.20 735.45,523.35 734.40,521.60"/>
    </edge>
    <edge id=":002_001_4" function="internal">
        <lane id=":002_001_4_0" index="0" speed="11.18" length="27.20" width="3.20" shape="736.00,527.20 736.00,500.00"/>
    </edge>
    <edge id=":002_001_5" function="internal">
        <lane id=":002_001_5_0" index="0" speed="11.07" length="11.48" width="3.20" shape="736.00,527.20 737.66,520.67 740.44,516.83"/>
    </edge>
    <edge id=":002_001_6" function="internal">
        <lane id=":002_001_6_0" index="0" speed="9.26" length="6.96" width="3.20" shape="739.20,527.20 738.45,521.95 737.60,520.53"/>
    </edge>
    <edge id=":002_001_7" function="internal">
        <lane id=":002_001_7_0" index="0" speed="11.18" length="27.20" width="3.20" shape="739.20,527.20 739.20,500.00"/>
    </edge>
    <edge id=":002_001_8" function="internal">
        <lane id=":002_001_8_0" index="0" speed="10.10" length="5.96" width="3.20" shape="739.20,527.20 740.57,521.80 740.80,521.48"/>
    </edge>
    <edge id=":002_001_36" function="internal">
        <lane id=":002_001_36_0" index="0" speed="11.18" length="26.08" width="3.20" shape="734.63,521.05 734.92,520.08 740.27,513.07 747.27,507.73 754.40,505.60"/>
    </edge>
    <edge id=":002_001_37" function="internal">
        <lane id=":002_001_37_0" index="0" speed="8.00" length="8.26" width="3.20" shape="734.40,521.60 733.80,520.60 731.05,518.95 727.20,518.40"/>
    </edge>
    <edge id=":002_001_38" function="internal">
        <lane id=":002_001_38_0" index="0" speed="11.07" length="16.62" width="3.20" shape="740.44,516.83 741.95,514.75 747.87,510.46 754.40,508.80"/>
    </edge>
    <edge id=":002_001_39" function="internal">
        <lane id=":002_001_39_0" index="0" speed="9.26" length="12.40" width="3.20" shape="737.60,520.53 736.20,518.20 732.45,515.95 727.20,515.20"/>
    </edge>
    <edge id=":002_001_40" function="internal">
        <lane id=":002_001_40_0" index="0" speed="10.10" length="17.25" width="3.20" shape="740.80,521.48 744.11,516.91 749.00,513.37 754.40,512.00"/>
    </edge>
    <edge id=":002_001_9" function="internal">
        <lane id=":002_001_9_0" index="0" speed="6.51" length="9.03" width="3.20" shape="754.40,521.60 751.95,521.95 750.20,523.00 749.15,524.75 748.80,527.20"/>
    </edge>
    <edge id=":002_001_10" function="internal">
        <lane id=":002_001_10_0" index="0" speed="11.18" length="27.20" width="3.20" shape="754.40,521.60 727.20,521.60"/>
    </edge>
    <edge id=":002_001_11" function="internal">
        <lane id=":002_001_11_0" index="0" speed="11.18" length="32.49" width="3.20" shape="754.40,521.60 747.27,519.48 740.27,514.13 734.92,507.13 732.80,500.00"/>
    </edge>
    <edge id=":002_001_12" function="internal">
        <lane id=":002_001_12_0" index="0" speed="8.00" length="14.19" width="3.20" shape="754.40,518.40 750.55,518.95 747.80,520.60 746.15,523.35 745.60,527.20"/>
    </edge>
    <edge id=":002_001_13" function="internal">
        <lane id=":002_001_13_0" index="0" speed="11.18" length="27.20" width="3.20" shape="754.40,518.40 727.20,518.40"/>
    </edge>
    <edge id=":002_001_14" function="internal">
        <lane id=":002_001_14_0" index="0" speed="11.07" length="28.10" width="3.20" shape="754.40,518.40 747.87,516.74 741.95,512.45 737.66,506.53 736.00,500.00"/>
    </edge>
    <edge id=":002_001_15" function="internal">
        <lane id=":002_001_15_0" index="0" speed="9.26" length="19.35" width="3.20" shape="754.40,515.20 749.15,515.95 745.40,518.20 743.15,521.95 742.40,527.20"/>
    </edge>
    <edge id=":002_001_16" function="internal">
        <lane id=":002_001_16_0" index="0" speed="11.18" length="27.20" width="3.20" shape="754.40,515.20 727.20,515.20"/>
    </edge>
    <edge id=":002_001_17" function="internal">
        <lane id=":002_001_17_0" index="0" speed="10.10" length="23.22" width="3.20" shape="754.40,515.20 749.00,513.83 744.11,510.29 740.57,505.40 739.20,500.00"/>
    </edge>
    <edge id=":002_001_18" function="internal">
        <lane id=":002_001_18_0" index="0" speed="6.51" length="9.03" width="3.20" shape="748.80,500.00 749.15,502.45 750.20,504.20 751.95,505.25 754.40,505.60"/>
    </edge>
    <edge id=":002_001_19" function="internal">
        <lane id=":002_001_19_0" index="0" speed="11.18" length="27.20" width="3.20" shape="748.80,500.00 748.80,527.20"/>
    </edge>
    <edge id=":002_001_20" function="internal">
        <lane id=":002_001_20_0" index="0" speed="11.18" length="6.41" width="3.20" shape="748.80,500.00 746.97,506.15"/>
    </edge>
    <edge id=":002_001_21" function="internal">
        <lane id=":002_001_21_0" index="0" speed="8.00" length="5.93" width="3.20" shape="745.60,500.00 746.15,503.85 747.20,505.60"/>
    </edge>
    <edge id=":002_001_22" function="internal">
        <lane id=":002_001_22_0" index="0" speed="11.18" length="27.20" width="3.20" shape="745.60,500.00 745.60,527.20"/>
    </edge>
    <edge id=":002_001_23" function="internal">
        <lane id=":002_001_23_0" index="0" speed="11.07" length="11.48" width="3.20" shape="745.60,500.00 743.94,506.53 741.16,510.37"/>
    </edge>
    <edge id=":002_001_24" function="internal">
        <lane id=":002_001_24_0" index="0" speed="9.26" length="6.96" width="3.20" shape="742.40,500.00 743.15,505.25 744.00,506.67"/>
    </edge>
    <edge id=":002_001_25" function="internal">
        <lane id=":002_001_25_0" index="0" speed="11.18" length="27.20" width="3.20" shape="742.40,500.00 742.40,527.20"/>
    </edge>
    <edge id=":002_001_26" function="internal">
        <lane id=":002_001_26_0" index="0" speed="10.10" length="5.96" width="3.20" shape="742.40,500.00 741.03,505.40 740.80,505.72"/>
    </edge>
    <edge id=":002_001_41" function="internal">
        <lane id=":002_001_41_0" index="0" speed="11.18" length="26.08" width="3.20" shape="746.97,506.15 746.67,507.13 741.33,514.13 734.32,519.48 727.20,521.60"/>
    </edge>
    <edge id=":002_001_42" function="internal">
        <lane id=":002_001_42_0" index="0" speed="8.00" length="8.26" width="3.20" shape="747.20,505.60 747.80,506.60 750.55,508.25 754.40,508.80"/>
    </edge>
    <edge id=":002_001_43" function="internal">
        <lane id=":002_001_43_0" index="0" speed="11.07" length="16.62" width="3.20" shape="741.16,510.37 739.65,512.45 733.73,516.74 727.20,518.40"/>
    </edge>
    <edge id=":002_001_44" function="internal">
        <lane id=":002_001_44_0" index="0" speed="9.26" length="12.40" width="3.20" shape="744.00,506.67 745.40,509.00 749.15,511.25 754.40,512.00"/>
    </edge>
    <edge id=":002_001_45" function="internal">
        <lane id=":002_001_45_0" index="0" speed="10.10" length="17.25" width="3.20" shape="740.80,505.72 737.49,510.29 732.60,513.83 727.20,515.20"/>
    </edge>
    <edge id=":002_001_27" function="internal">
        <lane id=":002_001_27_0" index="0" speed="6.51" length="9.03" width="3.20" shape="727.20,505.60 729.65,505.25 731.40,504.20 732.45,502.45 732.80,500.00"/>
    </edge>
    <edge id=":002_001_28" function="internal">
        <lane id=":002_001_28_0" index="0" speed="11.18" length="27.20" width="3.20" shape="727.20,505.60 754.40,505.60"/>
    </edge>
    <edge id=":002_001_29" function="internal">
        <lane id=":002_001_29_0" index="0" speed="11.18" length="32.49" width="3.20" shape="727.20,505.60 734.32,507.73 741.33,513.07 746.67,520.08 748.80,527.20"/>
    </edge>
    <edge id=":002_001_30" function="internal">
        <lane id=":002_001_30_0" index="0" speed="8.00" length="14.19" width="3.20" shape="727.20,508.80 731.05,508.25 733.80,506.60 735.45,503.85 736.00,500.00"/>
    </edge>
    <edge id=":002_001_31" function="internal">
        <lane id=":002_001_31_0" index="0" speed="11.18" length="27.20" width="3.20" shape="727.20,508.80 754.40,508.80"/>
    </edge>
    <edge id=":002_001_32" function="internal">
        <lane id=":002_001_32_0" index="0" speed="11.07" length="28.10" width="3.20" shape="727.20,508.80 733.73,510.46 739.65,514.75 743.94,520.67 745.60,527.20"/>
    </edge>
    <edge id=":002_001_33" function="internal">
        <lane id=":002_001_33_0" index="0" speed="9.26" length="19.35" width="3.20" shape="727.20,512.00 732.45,511.25 736.20,509.00 738.45,505.25 739.20,500.00"/>
    </edge>
    <edge id=":002_001_34" function="internal">
        <lane id=":002_001_34_0" index="0" speed="11.18" length="27.20" width="3.20" shape="727.20,512.00 754.40,512.00"/>
    </edge>
    <edge id=":002_001_35" function="internal">
        <lane id=":002_001_35_0" index="0" speed="10.10" length="23.22" width="3.20" shape="727.20,512.00 732.60,513.37 737.49,516.91 741.03,521.80 742.40,527.20"/>
    </edge>
    <edge id=":002_002_0" function="internal">
        <lane id=":002_002_0_0" index="0" speed="6.51" length="9.03" width="3.20" shape="732.80,754.40 732.45,751.95 731.40,750.20 729.65,749.15 727.20,748.80"/>
    </edge>
    <edge id=":002_002_1" function="internal">