<routes>

	<vType id="car5" accel="200.0" decel="200.0" speedFactor="2" sigma="0.0" length="5" minGap="3.000000" maxSpeed="11.180000" tau="0.400000" carFollowModel="CACC" color="255,255,255"/>
	<vType id="car6" accel="200.0" decel="200.0" speedFactor="2" sigma="0.0" length="6" minGap="3.000000" maxSpeed="11.180000" tau="0.400000" carFollowModel="CACC" color="255,255,255"/>
	<vType id="car7" accel="200.0" decel="200.0" speedFactor="2" sigma="0.0" length="7" minGap="3.000000" maxSpeed="11.180000" tau="0.400000" carFollowModel="CACC" color="255,255,255"/>
	<vType id="car8" accel="200.0" decel="200.0" speedFactor="2" sigma="0.0" length="8" minGap="3.000000" maxSpeed="11.180000" tau="0.400000" carFollowModel="CACC" color="255,255,255"/>
	<vType id="car9" accel="200.0" decel="200.0" speedFactor="2" sigma="0.0" length="9" minGap="3.000000" maxSpeed="11.180000" tau="0.400000" carFollowModel="CACC" color="255,255,255"/>

	<route id="47" edges=" 001_001_1"/>
	<route id="35" edges=" 001_012_2"/>
	<route id="12" edges=" 012_001_3"/>
	<route id="0" edges=" 001_001_4"/>
	<route id="46" edges=" 001_002_1"/>
	<route id="34" edges=" 002_012_2"/>
	<route id="13" edges=" 012_002_3"/>
	<route id="1" edges=" 002_001_4"/>
	<route id="45" edges=" 001_003_1"/>
	<route id="33" edges=" 003_012_2"/>
	<route id="14" edges=" 012_003_3"/>
	<route id="2" edges=" 003_001_4"/>
	<route id="44" edges=" 001_004_1"/>
	<route id="32" edges=" 004_012_2"/>
	<route id="15" edges=" 012_004_3"/>
	<route id="3" edges=" 004_001_4"/>
	<route id="43" edges=" 001_005_1"/>
	<route id="31" edges=" 005_012_2"/>
	<route id="16" edges=" 012_005_3"/>
	<route id="4" edges=" 005_001_4"/>
	<route id="42" edges=" 001_006_1"/>
	<route id="30" edges=" 006_012_2"/>
	<route id="17" edges=" 012_006_3"/>
	<route id="5" edges=" 006_001_4"/>
	<route id="41" edges=" 001_007_1"/>
	<route id="29" edges=" 007_012_2"/>
	<route id="18" edges=" 012_007_3"/>
	<route id="6" edges=" 007_001_4"/>
	<route id="40" edges=" 001_008_1"/>
	<route id="28" edges=" 008_012_2"/>
	<route id="19" edges=" 012_008_3"/>
	<route id="7" edges=" 008_001_4"/>
	<route id="39" edges=" 001_009_1"/>
	<route id="27" edges=" 009_012_2"/>
	<route id="20" edges=" 012_009_3"/>
	<route id="8" edges=" 009_001_4"/>
	<route id="38" edges=" 001_010_1"/>
	<route id="26" edges=" 010_012_2"/>
	<route id="21" edges=" 012_010_3"/>
	<route id="9" edges=" 010_001_4"/>
	<route id="37" edges=" 001_011_1"/>
	<route id="25" edges=" 011_012_2"/>
	<route id="22" edges=" 012_011_3"/>
	<route id="10" edges=" 011_001_4"/>
	<route id="36" edges=" 001_012_1"/>
	<route id="24" edges=" 012_012_2"/>
	<route id="23" edges=" 012_012_3"/>
	<route id="11" edges=" 012_001_4"/>

	<vehicle id="car_0" type="car7" route="12" depart="0" departLane = "0" departSpeed="11.180000"/>
	<vehicle id="car_1" type="car5" route="34" depart="0" departLane = "2" departSpeed="11.180000"/>
	<vehicle id="car_2" type="car7" route="1" depart="0" departLane = "0" departSpeed="11.180000"/>
	<vehicle id="car_3" type="car9" route="14" depart="0" departLane = "1" departSpeed="11.180000"/>
	<vehicle id="car_4" type="car5" route="3" depart="0" departLane = "0" departSpeed="11.180000"/>
	<vehicle id="car_5" type="car9" route="43" depart="0" departLane = "2" departSpeed="11.180000"/>
	<vehicle id="car_6" type="car7" route="30" depart="0" departLane = "2" departSpeed="11.180000"/>
	<vehicle id="car_7" type="car5" route="17" depart="0" departLane = "2" departSpeed="11.180000"/>
	<vehicle id="car_8" type="car6" route="5" depart="0" departLane = "0" departSpeed="11.180000"/>
	<vehicle id="car_9" type="car5" route="29" depart="0" departLane = "1" departSpeed="11.180000"/>
	<vehicle id="car_10" type="car9" route="40" depart="0" departLane = "2" departSpeed="11.180000"/>
	<vehicle id="car_11" type="car7" route="7" depart="0" departLane = "2" departSpeed="11.180000"/>
	<vehicle id="car_12" type="car7" route="27" depart="0" departLane = "2" departSpeed="11.180000"/>
	<vehicle id="car_13" type="car9" route="38" depart="0" departLane = "2" departSpeed="11.180000"/>
	<vehicle id="car_14" type="car7" route="9" depart="0" departLane = "1" departSpeed="11.180000"/>
	<vehicle id="car_15" type="car5" route="25" depart="0" departLane = "0" departSpeed="11.180000"/>
	<vehicle id="car_16" type="car8" route="22" depart="0" departLane = "0" departSpeed="11.180000"/>
	<vehicle id="car_17" type="car6" route="36" depart="0" departLane = "1" departSpeed="11.180000"/>
	<vehicle id="car_18" type="car6" route="0" depart="1" departLane = "1" departSpeed="11.180000"/>
	<vehicle id="car_19" type="car6" route="33" depart="1" departLane = "0" departSpeed="11.180000"/>
	<vehicle id="car_20" type="car8" route="44" depart="1" departLane = "2" departSpeed="11.180000"/>
	<vehicle id="car_21" type="car9" route="18" depart="1" departLane = "0" departSpeed="11.180000"/>
	<vehicle id="car_22" type="car8" route="40" depart="1" departLane = "0" departSpeed="11.180000"/>
	<vehicle id="car_23" type="car8" route="28" depart="1" departLane = "0" departSpeed="11.180000"/>
	<vehicle id="car_24" type="car7" route="19" depart="1" departLane = "2" departSpeed="11.180000"/>
	<vehicle id="car_25" type="car8" route="7" depart="1" departLane = "0" departSpeed="11.180000"/>
	<vehicle id="car_26" type="car8" route="27" depart="1" departLane = "0" departSpeed="11.180000"/>
	<vehicle id="car_27" type="car6" route="20" depart="1" departLane = "2" departSpeed="11.180000"/>
	<vehicle id="car_28" type="car7" route="8" depart="1" departLane = "2" departSpeed="11.180000"/>
	<vehicle id="car_29" type="car8" route="26" depart="1" departLane = "2" departSpeed="11.180000"/>
	<vehicle id="car_30" type="car7" route="9" depart="1" departLane = "0" departSpeed="11.180000"/>
	<vehicle id="car_31" type="car8" route="22" depart="1" departLane = "2" departSpeed="11.180000"/>
	<vehicle id="car_32" type="car7" route="23" depart="1" departLane = "0" departSpeed="11.180000"/>
	<vehicle id="car_33" type="car9" route="11" depart="1" departLane = "0" departSpeed="11.180000"/>
	<vehicle id="car_34" type="car6" route="0" depart="2" departLane = "1" departSpeed="11.180000"/>
	<vehicle id="car_35" type="car5" route="13" depart="2" departLane = "1" departSpeed="11.180000"/>
	<vehicle id="car_36" type="car8" route="1" depart="2" departLane = "2" departSpeed="11.180000"/>
	<vehicle id="car_37" type="car6" route="14" depart="2" departLane = "2" departSpeed="11.180000"/>
	<vehicle id="car_38" type="car8" route="2" depart="2" departLane = "2" departSpeed="11.180000"/>
	<vehicle id="car_39" type="car8" route="15" depart="2" departLane = "1" departSpeed="11.180000"/>
	<vehicle id="car_40" type="car7" route="3" depart="2" departLane = "1" departSpeed="11.180000"/>
	<vehicle id="car_41" type="car8" route="16" depart="2" departLane = "1" departSpeed="11.180000"/>
	<vehicle id="car_42" type="car8" route="4" depart="2" departLane = "2" departSpeed="11.180000"/>
	<vehicle id="car_43" type="car6" route="30" depart="2" departLane = "2" departSpeed="11.180000"/>
	<vehicle id="car_44" type="car7" route="18" depart="2" departLane = "0" departSpeed="11.180000"/>
	<vehicle id="car_45" type="car6" route="6" depart="2" departLane = "0" departSpeed="11.180000"/>
	<vehicle id="car_46" type="car7" route="40" depart="2" departLane = "2" departSpeed="11.180000"/>
	<vehicle id="car_47" type="car8" route="8" depart="2" departLane = "0" departSpeed="11.180000"/>
	<vehicle id="car_48" type="car8" route="26" depart="2" departLane = "1" departSpeed="11.180000"/>
	<vehicle id="car_49" type="car5" route="9" depart="2" departLane = "1" departSpeed="11.180000"/>
	<vehicle id="car_50" type="car5" route="37" depart="2" departLane = "0" departSpeed="11.180000"/>
	<vehicle id="car_51" type="car7" route="47" depart="3" departLane = "2" departSpeed="11.180000"/>
	<vehicle id="car_52" type="car7" route="46" depart="3" departLane = "0" departSpeed="11.180000"/>
	<vehicle id="car_53" type="car8" route="33" depart="3" departLane = "2" departSpeed="11.180000"/>
	<vehicle id="car_54" type="car7" route="2" depart="3" departLane = "2" departSpeed="11.180000"/>
	<vehicle id="car_55" type="car7" route="4" depart="3" departLane = "1" departSpeed="11.180000"/>
	<vehicle id="car_56" type="car5" route="30" depart="3" departLane = "2" departSpeed="11.180000"/>
	<vehicle id="car_57" type="car6" route="17" depart="3" departLane = "2" departSpeed="11.180000"/>
	<vehicle id="car_58" type="car7" route="41" depart="3" departLane = "1" departSpeed="11.180000"/>
	<vehicle id="car_59" type="car6" route="18" depart="3" departLane = "1" departSpeed="11.180000"/>
	<vehicle id="car_60" type="car7" route="39" depart="3" departLane = "2" departSpeed="11.180000"/>
	<vehicle id="car_61" type="car8" route="20" depart="3" departLane = "2" departSpeed="11.180000"/>
	<vehicle id="car_62" type="car5" route="8" depart="3" departLane = "0" departSpeed="11.180000"/>
	<vehicle id="car_63" type="car6" route="38" depart="3" departLane = "2" departSpeed="11.180000"/>
	<vehicle id="car_64" type="car5" route="26" depart="3" departLane = "0" departSpeed="11.180000"/>
	<vehicle id="car_65" type="car6" route="25" depart="3" departLane = "0" departSpeed="11.180000"/>
	<vehicle id="car_66" type="car5" route="10" depart="3" departLane = "2" departSpeed="11.180000"/>
	<vehicle id="car_67" type="car6" route="0" depart="4" departLane = "1" departSpeed="11.180000"/>
	<vehicle id="car_68" type="car6" route="1" depart="4" departLane = "2" departSpeed="11.180000"/>
	<vehicle id="car_69" type="car7" route="45" depart="4" departLane = "2" departSpeed="11.180000"/>
	<vehicle id="car_70" type="car5" route="33" depart="4" departLane = "1" departSpeed="11.180000"/>
	<vehicle id="car_71" type="car5" route="43" depart="4" departLane = "0" departSpeed="11.180000"/>
	<vehicle id="car_72" type="car5" route="31" depart="4" departLane = "0" departSpeed="11.180000"/>
	<vehicle id="car_73" type="car8" route="4" depart="4" departLane = "1" departSpeed="11.180000"/>
	<vehicle id="car_74" type="car7" route="30" depart="4" departLane = "0" departSpeed="11.180000"/>
	<vehicle id="car_75" type="car9" route="5" depart="4" departLane = "2" departSpeed="11.180000"/>
	<vehicle id="car_76" type="car9" route="29" depart="4" departLane = "0" departSpeed="11.180000"/>
	<vehicle id="car_77" type="car8" route="18" depart="4" departLane = "1" departSpeed="11.180000"/>
	<vehicle id="car_78" type="car6" route="6" depart="4" departLane = "0" departSpeed="11.180000"/>
	<vehicle id="car_79" type="car5" route="19" depart="4" departLane = "2" departSpeed="11.180000"/>
	<vehicle id="car_80" type="car7" route="39" depart="4" departLane = "0" departSpeed="11.180000"/>
	<vehicle id="car_81" type="car7" route="26" depart="4" departLane = "0" departSpeed="11.180000"/>
	<vehicle id="car_82" type="car7" route="9" depart="4" departLane = "0" departSpeed="11.180000"/>
	<vehicle id="car_83" type="car5" route="25" depart="4" departLane = "0" departSpeed="11.180000"/>
	<vehicle id="car_84" type="car7" route="36" depart="4" departLane = "2" departSpeed="11.180000"/>
	<vehicle id="car_85" type="car6" route="11" depart="4" departLane = "0" departSpeed="11.180000"/>
	<vehicle id="car_86" type="car5" route="35" depart="5" departLane = "2" departSpeed="11.180000"/>
	<vehicle id="car_87" type="car7" route="0" depart="5" departLane = "2" departSpeed="11.180000"/>
	<vehicle id="car_88" type="car9" route="34" depart="5" departLane = "1" departSpeed="11.180000"/>
	<vehicle id="car_89" type="car6" route="13" depart="5" departLane = "1" departSpeed="11.180000"/>
	<vehicle id="car_90" type="car7" route="45" depart="5" departLane = "2" departSpeed="11.180000"/>
	<vehicle id="car_91" type="car7" route="43" depart="5" departLane = "2" departSpeed="11.180000"/>
	<vehicle id="car_92" type="car5" route="4" depart="5" departLane = "2" departSpeed="11.180000"/>
	<vehicle id="car_93" type="car8" route="30" depart="5" departLane = "1" departSpeed="11.180000"/>
	<vehicle id="car_94" type="car8" route="17" depart="5" departLane = "1" departSpeed="11.180000"/>
	<vehicle id="car_95" type="car5" route="5" depart="5" departLane = "0" departSpeed="11.180000"/>
	<vehicle id="car_96" type="car5" route="29" depart="5" departLane = "2" departSpeed="11.180000"/>
	<vehicle id="car_97" type="car5" route="6" depart="5" departLane = "1" departSpeed="11.180000"/>
	<vehicle id="car_98" type="car6" route="40" depart="5" departLane = "1" departSpeed="11.180000"/>
	<vehicle id="car_99" type="car6" route="7" depart="5" departLane = "0" departSpeed="11.180000"/>
	<vehicle id="car_100" type="car8" route="27" depart="5" departLane = "1" departSpeed="11.180000"/>
	<vehicle id="car_101" type="car5" route="8" depart="5" departLane = "1" departSpeed="11.180000"/>
	<vehicle id="car_102" type="car9" route="36" depart="5" departLane = "1" departSpeed="11.180000"/>
	<vehicle id="car_103" type="car6" route="12" depart="6" departLane = "1" departSpeed="11.180000"/>
	<vehicle id="car_104" type="car9" route="46" depart="6" departLane = "0" departSpeed="11.180000"/>
	<vehicle id="car_105" type="car5" route="13" depart="6" departLane = "2" departSpeed="11.180000"/>
	<vehicle id="car_106" type="car8" route="33" depart="6" departLane = "2" departSpeed="11.180000"/>
	<vehicle id="car_107" type="car8" route="44" depart="6" departLane = "2" departSpeed="11.180000"/>
	<vehicle id="car_108" type="car6" route="15" depart="6" departLane = "0" departSpeed="11.180000"/>
	<vehicle id="car_109" type="car6" route="31" depart="6" departLane = "0" departSpeed="11.180000"/>
	<vehicle id="car_110" type="car6" route="4" depart="6" departLane = "2" departSpeed="11.180000"/>
	<vehicle id="car_111" type="car5" route="17" depart="6" departLane = "1" departSpeed="11.180000"/>
	<vehicle id="car_112" type="car5" route="29" depart="6" departLane = "0" departSpeed="11.180000"/>
	<vehicle id="car_113" type="car6" route="40" depart="6" departLane = "0" departSpeed="11.180000"/>
	<vehicle id="car_114" type="car9" route="28" depart="6" departLane = "1" departSpeed="11.180000"/>
	<vehicle id="car_115" type="car7" route="25" depart="6" departLane = "0" departSpeed="11.180000"/>
	<vehicle id="car_116" type="car9" route="23" depart="6" departLane = "1" departSpeed="11.180000"/>
	<vehicle id="car_117" type="car6" route="11" depart="6" departLane = "2" departSpeed="11.180000"/>
	<vehicle id="car_118" type="car6" route="0" depart="7" departLane = "1" departSpeed="11.180000"/>
	<vehicle id="car_119" type="car9" route="46" depart="7" departLane = "1" departSpeed="11.180000"/>
	<vehicle id="car_120" type="car7" route="34" depart="7" departLane = "2" departSpeed="11.180000"/>
	<vehicle id="car_121" type="car7" route="13" depart="7" departLane = "1" departSpeed="11.180000"/>
	<vehicle id="car_122" type="car7" route="33" depart="7" departLane = "2" departSpeed="11.180000"/>
	<vehicle id="car_123" type="car9" route="32" depart="7" departLane = "1" departSpeed="11.180000"/>
	<vehicle id="car_124" type="car6" route="15" depart="7" departLane = "2" departSpeed="11.180000"/>
	<vehicle id="car_125" type="car9" route="42" depart="7" departLane = "0" departSpeed="11.180000"/>
	<vehicle id="car_126" type="car5" route="30" depart="7" departLane = "2" departSpeed="11.180000"/>
	<vehicle id="car_127" type="car5" route="17" depart="7" departLane = "0" departSpeed="11.180000"/>
	<vehicle id="car_128" type="car8" route="5" depart="7" departLane = "1" departSpeed="11.180000"/>
	<vehicle id="car_129" type="car7" route="18" depart="7" departLane = "0" departSpeed="11.180000"/>
	<vehicle id="car_130" type="car9" route="19" depart="7" departLane = "2" departSpeed="11.180000"/>
	<vehicle id="car_131" type="car9" route="7" depart="7" departLane = "0" departSpeed="11.180000"/>
	<vehicle id="car_132" type="car8" route="27" depart="7" departLane = "1" departSpeed="11.180000"/>
	<vehicle id="car_133" type="car5" route="20" depart="7" departLane = "0" departSpeed="11.180000"/>
	<vehicle id="car_134" type="car5" route="26" depart="7" departLane = "2" departSpeed="11.180000"/>
	<vehicle id="car_135" type="car8" route="21" depart="7" departLane = "0" departSpeed="11.180000"/>
	<vehicle id="car_136" type="car8" route="24" depart="7" departLane = "1" departSpeed="11.180000"/>
	<vehicle id="car_137" type="car8" route="12" depart="8" departLane = "2" departSpeed="11.180000"/>
	<vehicle id="car_138" type="car7" route="13" depart="8" departLane = "2" departSpeed="11.180000"/>
	<vehicle id="car_139" type="car7" route="45" depart="8" departLane = "2" departSpeed="11.180000"/>
	<vehicle id="car_140" type="car7" route="33" depart="8" departLane = "2" departSpeed="11.180000"/>
	<vehicle id="car_141" type="car6" route="16" depart="8" departLane = "0" departSpeed="11.180000"/>
	<vehicle id="car_142" type="car7" route="4" depart="8" departLane = "1" departSpeed="11.180000"/>
	<vehicle id="car_143" type="car7" route="17" depart="8" departLane = "0" departSpeed="11.180000"/>
	<vehicle id="car_144" type="car7" route="18" depart="8" departLane = "1" departSpeed="11.180000"/>
	<vehicle id="car_145" type="car9" route="40" depart="8" departLane = "0" departSpeed="11.180000"/>
	<vehicle id="car_146" type="car8" route="28" depart="8" departLane = "0" departSpeed="11.180000"/>
	<vehicle id="car_147" type="car6" route="7" depart="8" departLane = "2" departSpeed="11.180000"/>
	<vehicle id="car_148" type="car7" route="39" depart="8" departLane = "2" departSpeed="11.180000"/>
	<vehicle id="car_149" type="car6" route="38" depart="8" departLane = "2" departSpeed="11.180000"/>
	<vehicle id="car_150" type="car9" route="9" depart="8" departLane = "0" departSpeed="11.180000"/>
	<vehicle id="car_151" type="car6" route="37" depart="8" departLane = "0" departSpeed="11.180000"/>
	<vehicle id="car_152" type="car5" route="22" depart="8" departLane = "2" departSpeed="11.180000"/>
	<vehicle id="car_153" type="car9" route="47" depart="9" departLane = "0" departSpeed="11.180000"/>
	<vehicle id="car_154" type="car9" route="35" depart="9" departLane = "1" departSpeed="11.180000"/>
	<vehicle id="car_155" type="car9" route="12" depart="9" departLane = "1" departSpeed="11.180000"/>
	<vehicle id="car_156" type="car6" route="34" depart="9" departLane = "1" departSpeed="11.180000"/>
	<vehicle id="car_157" type="car7" route="13" depart="9" departLane = "1" departSpeed="11.180000"/>
	<vehicle id="car_158" type="car8" route="1" depart="9" departLane = "0" departSpeed="11.180000"/>
	<vehicle id="car_159" type="car6" route="31" depart="9" departLane = "2" departSpeed="11.180000"/>
	<vehicle id="car_160" type="car7" route="16" depart="9" departLane = "0" departSpeed="11.180000"/>
	<vehicle id="car_161" type="car5" route="4" depart="9" departLane = "1" departSpeed="11.180000"/>
	<vehicle id="car_162" type="car6" route="30" depart="9" departLane = "0" departSpeed="11.180000"/>
	<vehicle id="car_163" type="car9" route="18" depart="9" departLane = "0" departSpeed="11.180000"/>
	<vehicle id="car_164" type="car8" route="28" depart="9" departLane = "0" departSpeed="11.180000"/>
	<vehicle id="car_165" type="car9" route="19" depart="9" departLane = "2" departSpeed="11.180000"/>
	<vehicle id="car_166" type="car6" route="20" depart="9" departLane = "0" departSpeed="11.180000"/>
	<vehicle id="car_167" type="car7" route="38" depart="9" departLane = "0" departSpeed="11.180000"/>
	<vehicle id="car_168" type="car9" route="9" depart="9" departLane = "1" departSpeed="11.180000"/>
	<vehicle id="car_169" type="car7" route="10" depart="9" departLane = "0" departSpeed="11.180000"/>
	<vehicle id="car_170" type="car6" route="24" depart="9" departLane = "0" departSpeed="11.180000"/>
	<vehicle id="car_171" type="car9" route="11" depart="9" departLane = "2" departSpeed="11.180000"/>
	<vehicle id="car_172" type="car7" route="35" depart="10" departLane = "2" departSpeed="11.180000"/>
	<vehicle id="car_173" type="car9" route="34" depart="10" departLane = "2" departSpeed="11.180000"/>
	<vehicle id="car_174" type="car6" route="2" depart="10" departLane = "0" departSpeed="11.180000"/>
	<vehicle id="car_175" type="car9" route="44" depart="10" departLane = "0" departSpeed="11.180000"/>
	<vehicle id="car_176" type="car5" route="3" depart="10" departLane = "0" departSpeed="11.180000"/>
	<vehicle id="car_177" type="car8" route="43" depart="10" departLane = "0" departSpeed="11.180000"/>
	<vehicle id="car_178" type="car8" route="41" depart="10" departLane = "2" departSpeed="11.180000"/>
	<vehicle id="car_179" type="car9" route="19" depart="10" departLane = "2" departSpeed="11.180000"/>
	<vehicle id="car_180" type="car8" route="27" depart="10" departLane = "2" departSpeed="11.180000"/>
	<vehicle id="car_181" type="car6" route="38" depart="10" departLane = "0" departSpeed="11.180000"/>
	<vehicle id="car_182" type="car7" route="26" depart="10" departLane = "1" departSpeed="11.180000"/>
	<vehicle id="car_183" type="car5" route="21" depart="10" departLane = "0" departSpeed="11.180000"/>
	<vehicle id="car_184" type="car9" route="10" depart="10" departLane = "2" departSpeed="11.180000"/>
	<vehicle id="car_185" type="car8" route="33" depart="11" departLane = "2" departSpeed="11.180000"/>
	<vehicle id="car_186" type="car5" route="14" depart="11" departLane = "1" departSpeed="11.180000"/>
	<vehicle id="car_187" type="car5" route="2" depart="11" departLane = "2" departSpeed="11.180000"/>
	<vehicle id="car_188" type="car8" route="15" depart="11" departLane = "2" departSpeed="11.180000"/>
	<vehicle id="car_189" type="car7" route="43" depart="11" departLane = "2" departSpeed="11.180000"/>
	<vehicle id="car_190" type="car5" route="31" depart="11" departLane = "1" departSpeed="11.180000"/>
	<vehicle id="car_191" type="car9" route="4" depart="11" departLane = "0" departSpeed="11.180000"/>
	<vehicle id="car_192" type="car6" route="17" depart="11" departLane = "2" departSpeed="11.180000"/>
	<vehicle id="car_193" type="car7" route="29" depart="11" departLane = "2" departSpeed="11.180000"/>
	<vehicle id="car_194" type="car9" route="6" depart="11" departLane = "0" departSpeed="11.180000"/>
	<vehicle id="car_195" type="car6" route="40" depart="11" departLane = "0" departSpeed="11.180000"/>
	<vehicle id="car_196" type="car6" route="28" depart="11" departLane = "2" departSpeed="11.180000"/>
	<vehicle id="car_197" type="car9" route="7" depart="11" departLane = "0" departSpeed="11.180000"/>
	<vehicle id="car_198" type="car6" route="39" depart="11" departLane = "2" departSpeed="11.180000"/>
	<vehicle id="car_199" type="car8" route="25" depart="11" departLane = "2" departSpeed="11.180000"/>
	<vehicle id="car_200" type="car8" route="10" depart="11" departLane = "1" departSpeed="11.180000"/>
	<vehicle id="car_201" type="car6" route="36" depart="11" departLane = "0" departSpeed="11.180000"/>
	<vehicle id="car_202" type="car9" route="0" depart="12" departLane = "0" departSpeed="11.180000"/>
	<vehicle id="car_203" type="car7" route="46" depart="12" departLane = "2" departSpeed="11.180000"/>
	<vehicle id="car_204" type="car5" route="1" depart="12" departLane = "2" departSpeed="11.180000"/>
	<vehicle id="car_205" type="car9" route="45" depart="12" departLane = "0" departSpeed="11.180000"/>
	<vehicle id="car_206" type="car6" route="33" depart="12" departLane = "2" departSpeed="11.180000"/>
	<vehicle id="car_207" type="car6" route="2" depart="12" departLane = "2" departSpeed="11.180000"/>
	<vehicle id="car_208" type="car6" route="32" depart="12" departLane = "0" departSpeed="11.180000"/>
	<vehicle id="car_209" type="car6" route="15" depart="12" departLane = "1" departSpeed="11.180000"/>
	<vehicle id="car_210" type="car7" route="31" depart="12" departLane = "0" departSpeed="11.180000"/>
	<vehicle id="car_211" type="car6" route="40" depart="12" departLane = "2" departSpeed="11.180000"/>
	<vehicle id="car_212" type="car7" route="20" depart="12" departLane = "2" departSpeed="11.180000"/>
	<vehicle id="car_213" type="car7" route="36" depart="12" departLane = "2" departSpeed="11.180000"/>
	<vehicle id="car_214" type="car7" route="11" depart="12" departLane = "1" departSpeed="11.180000"/>
	<vehicle id="car_215" type="car6" route="35" depart="13" departLane = "0" departSpeed="11.180000"/>
	<vehicle id="car_216" type="car5" route="0" depart="13" departLane = "2" departSpeed="11.180000"/>
	<vehicle id="car_217" type="car5" route="34" depart="13" departLane = "0" departSpeed="11.180000"/>
	<vehicle id="car_218" type="car5" route="2" depart="13" departLane = "2" departSpeed="11.180000"/>
	<vehicle id="car_219" type="car7" route="44" depart="13" departLane = "2" departSpeed="11.180000"/>
	<vehicle id="car_220" type="car7" route="3" depart="13" departLane = "2" departSpeed="11.180000"/>
	<vehicle id="car_221" type="car6" route="42" depart="13" departLane = "2" departSpeed="11.180000"/>
	<vehicle id="car_222" type="car6" route="5" depart="13" departLane = "1" departSpeed="11.180000"/>
	<vehicle id="car_223" type="car9" route="6" depart="13" departLane = "1" departSpeed="11.180000"/>
	<vehicle id="car_224" type="car5" route="28" depart="13" departLane = "0" departSpeed="11.180000"/>
	<vehicle id="car_225" type="car9" route="19" depart="13" departLane = "2" departSpeed="11.180000"/>
	<vehicle id="car_226" type="car7" route="7" depart="13" departLane = "2" departSpeed="11.180000"/>
	<vehicle id="car_227" type="car6" route="39" depart="13" departLane = "1" departSpeed="11.180000"/>
	<vehicle id="car_228" type="car9" route="8" depart="13" departLane = "0" departSpeed="11.180000"/>
	<vehicle id="car_229" type="car9" route="38" depart="13" departLane = "2" departSpeed="11.180000"/>
	<vehicle id="car_230" type="car6" route="9" depart="13" departLane = "0" departSpeed="11.180000"/>
	<vehicle id="car_231" type="car6" route="37" depart="13" departLane = "1" departSpeed="11.180000"/>
	<vehicle id="car_232" type="car9" route="22" depart="13" departLane = "1" departSpeed="11.180000"/>
	<vehicle id="car_233" type="car7" route="24" depart="13" departLane = "0" departSpeed="11.180000"/>
	<vehicle id="car_234" type="car9" route="23" depart="13" departLane = "0" departSpeed="11.180000"/>
	<vehicle id="car_235" type="car6" route="0" depart="14" departLane = "2" departSpeed="11.180000"/>
	<vehicle id="car_236" type="car9" route="1" depart="14" departLane = "0" departSpeed="11.180000"/>
	<vehicle id="car_237" type="car6" route="45" depart="14" departLane = "0" departSpeed="11.180000"/>
	<vehicle id="car_238" type="car5" route="33" depart="14" departLane = "0" departSpeed="11.180000"/>
	<vehicle id="car_239" type="car5" route="44" depart="14" departLane = "2" departSpeed="11.180000"/>
	<vehicle id="car_240" type="car9" route="15" depart="14" departLane = "1" departSpeed="11.180000"/>
	<vehicle id="car_241" type="car8" route="43" depart="14" departLane = "1" departSpeed="11.180000"/>
	<vehicle id="car_242" type="car9" route="4" depart="14" departLane = "0" departSpeed="11.180000"/>
	<vehicle id="car_243" type="car8" route="17" depart="14" departLane = "1" departSpeed="11.180000"/>
	<vehicle id="car_244" type="car5" route="41" depart="14" departLane = "0" departSpeed="11.180000"/>
	<vehicle id="car_245" type="car6" route="18" depart="14" departLane = "1" departSpeed="11.180000"/>
	<vehicle id="car_246" type="car9" route="28" depart="14" departLane = "1" departSpeed="11.180000"/>
	<vehicle id="car_247" type="car6" route="19" depart="14" departLane = "2" departSpeed="11.180000"/>
	<vehicle id="car_248" type="car5" route="20" depart="14" departLane = "1" departSpeed="11.180000"/>
	<vehicle id="car_249" type="car8" route="10" depart="14" departLane = "2" departSpeed="11.180000"/>
	<vehicle id="car_250" type="car6" route="36" depart="14" departLane = "1" departSpeed="11.180000"/>
	<vehicle id="car_251" type="car9" route="24" depart="14" departLane = "0" departSpeed="11.180000"/>
	<vehicle id="car_252" type="car9" route="23" depart="14" departLane = "0" departSpeed="11.180000"/>
	<vehicle id="car_253" type="car7" route="0" depart="15" departLane = "2" departSpeed="11.180000"/>
	<vehicle id="car_254" type="car5" route="46" depart="15" departLane = "0" departSpeed="11.180000"/>
	<vehicle id="car_255" type="car6" route="14" depart="15" departLane = "0" departSpeed="11.180000"/>
	<vehicle id="car_256" type="car5" route="44" depart="15" departLane = "2" departSpeed="11.180000"/>
	<vehicle id="car_257" type="car6" route="32" depart="15" departLane = "2" departSpeed="11.180000"/>
	<vehicle id="car_258" type="car5" route="16" depart="15" departLane = "2" departSpeed="11.180000"/>
	<vehicle id="car_259" type="car7" route="5" depart="15" departLane = "0" departSpeed="11.180000"/>
	<vehicle id="car_260" type="car5" route="41" depart="15" departLane = "0" departSpeed="11.180000"/>
	<vehicle id="car_261" type="car8" route="18" depart="15" departLane = "0" departSpeed="11.180000"/>
	<vehicle id="car_262" type="car5" route="19" depart="15" departLane = "1" departSpeed="11.180000"/>
	<vehicle id="car_263" type="car5" route="39" depart="15" departLane = "2" departSpeed="11.180000"/>
	<vehicle id="car_264" type="car9" route="8" depart="15" departLane = "0" departSpeed="11.180000"/>
	<vehicle id="car_265" type="car5" route="26" depart="15" departLane = "2" departSpeed="11.180000"/>
	<vehicle id="car_266" type="car7" route="25" depart="15" departLane = "2" departSpeed="11.180000"/>
	<vehicle id="car_267" type="car7" route="24" depart="15" departLane = "2" departSpeed="11.180000"/>
	<vehicle id="car_268" type="car6" route="23" depart="15" departLane = "0" departSpeed="11.180000"/>
	<vehicle id="car_269" type="car5" route="12" depart="16" departLane = "1" departSpeed="11.180000"/>
	<vehicle id="car_270" type="car6" route="34" depart="16" departLane = "1" departSpeed="11.180000"/>
	<vehicle id="car_271" type="car9" route="13" depart="16" departLane = "0" departSpeed="11.180000"/>
	<vehicle id="car_272" type="car7" route="4" depart="16" departLane = "1" departSpeed="11.180000"/>