<routes>

	<vType id="car5" accel="200.0" decel="200.0" speedFactor="2" sigma="0.0" length="5" minGap="3.000000" maxSpeed="11.180000" tau="0.100000" carFollowModel="CACC" color="255,255,255"/>
	<vType id="car6" accel="200.0" decel="200.0" speedFactor="2" sigma="0.0" length="6" minGap="3.000000" maxSpeed="11.180000" tau="0.100000" carFollowModel="CACC" color="255,255,255"/>
	<vType id="car7" accel="200.0" decel="200.0" speedFactor="2" sigma="0.0" length="7" minGap="3.000000" maxSpeed="11.180000" tau="0.100000" carFollowModel="CACC" color="255,255,255"/>
	<vType id="car8" accel="200.0" decel="200.0" speedFactor="2" sigma="0.0" length="8" minGap="3.000000" maxSpeed="11.180000" tau="0.100000" carFollowModel="CACC" color="255,255,255"/>
	<vType id="car9" accel="200.0" decel="200.0" speedFactor="2" sigma="0.0" length="9" minGap="3.000000" maxSpeed="11.180000" tau="0.100000" carFollowModel="CACC" color="255,255,255"/>

	<route id="3" edges=" 001_001_1"/>
	<route id="2" edges=" 001_001_2"/>
	<route id="1" edges=" 001_001_3"/>
	<route id="0" edges=" 001_001_4"/>

	<vehicle id="car_0" type="car8" route="2" depart="6" departLane = "1" departSpeed="11.180000"/>
	<vehicle id="car_1" type="car8" route="3" depart="8" departLane = "2" departSpeed="11.180000"/>
	<vehicle id="car_2" type="car9" route="1" depart="9" departLane = "0" departSpeed="11.180000"/>
	<vehicle id="car_3" type="car7" route="0" depart="9" departLane = "2" departSpeed="11.180000"/>
	<vehicle id="car_4" type="car9" route="3" depart="10" departLane = "1" departSpeed="11.180000"/>
	<vehicle id="car_5" type="car9" route="2" depart="13" departLane = "2" departSpeed="11.180000"/>
	<vehicle id="car_6" type="car6" route="1" depart="13" departLane = "0" departSpeed="11.180000"/>
	<vehicle id="car_7" type="car9" route="2" depart="18" departLane = "0" departSpeed="11.180000"/>
	<vehicle id="car_8" type="car7" route="2" depart="19" departLane = "0" departSpeed="11.180000"/>
	<vehicle id="car_9" type="car6" route="2" depart="20" departLane = "2" departSpeed="11.180000"/>
	<vehicle id="car_10" type="car9" route="1" depart="20" departLane = "2" departSpeed="11.180000"/>
	<vehicle id="car_11" type="car6" route="0" depart="20" departLane = "2" departSpeed="11.180000"/>
	<vehicle id="car_12" type="car5" route="3" depart="21" departLane = "0" departSpeed="11.180000"/>
	<vehicle id="car_13" type="car6" route="2" depart="21" departLane = "2" departSpeed="11.180000"/>
	<vehicle id="car_14" type="car5" route="3" depart="22" departLane = "2" departSpeed="11.180000"/>
	<vehicle id="car_15" type="car5" route="1" depart="22" departLane = "2" departSpeed="11.180000"/>
	<vehicle id="car_16" type="car5" route="1" depart="23" departLane = "2" departSpeed="11.180000"/>
	<vehicle id="car_17" type="car6" route="0" depart="25" departLane = "0" departSpeed="11.180000"/>
	<vehicle id="car_18" type="car8" route="2" depart="26" departLane = "2" departSpeed="11.180000"/>
	<vehicle id="car_19" type="car8" route="1" depart="26" departLane = "2" departSpeed="11.180000"/>
	<vehicle id="car_20" type="car5" route="1" depart="27" departLane = "1" departSpeed="11.180000"/>
	<vehicle id="car_21" type="car7" route="3" depart="28" departLane = "0" departSpeed="11.180000"/>
	<vehicle id="car_22" type="car7" route="3" depart="30" departLane = "1" departSpeed="11.180000"/>
	<vehicle id="car_23" type="car6" route="2" depart="30" departLane = "2" departSpeed="11.180000"/>
	<vehicle id="car_24" type="car8" route="3" depart="33" departLane = "0" departSpeed="11.180000"/>
	<vehicle id="car_25" type="car5" route="1" depart="34" departLane = "1" departSpeed="11.180000"/>
	<vehicle id="car_26" type="car6" route="0" depart="36" departLane = "0" departSpeed="11.180000"/>
	<vehicle id="car_27" type="car5" route="1" depart="37" departLane = "2" departSpeed="11.180000"/>
	<vehicle id="car_28" type="car8" route="0" depart="40" departLane = "0" departSpeed="11.180000"/>
	<vehicle id="car_29" type="car9" route="3" depart="41" departLane = "2" departSpeed="11.180000"/>
	<vehicle id="car_30" type="car6" route="2" depart="41" departLane = "1" departSpeed="11.180000"/>
	<vehicle id="car_31" type="car6" route="1" depart="41" departLane = "2" departSpeed="11.180000"/>
	<vehicle id="car_32" type="car9" route="0" depart="42" departLane = "2" departSpeed="11.180000"/>
	<vehicle id="car_33" type="car9" route="2" depart="44" departLane = "1" departSpeed="11.180000"/>
	<vehicle id="car_34" type="car7" route="1" depart="44" departLane = "1" departSpeed="11.180000"/>
	<vehicle id="car_35" type="car6" route="0" depart="45" departLane = "0" departSpeed="11.180000"/>
	<vehicle id="car_36" type="car5" route="1" depart="46" departLane = "1" departSpeed="11.180000"/>
	<vehicle id="car_37" type="car9" route="2" depart="48" departLane = "1" departSpeed="11.180000"/>
	<vehicle id="car_38" type="car5" route="2" depart="49" departLane = "2" departSpeed="11.180000"/>
	<vehicle id="car_39" type="car5" route="0" depart="51" departLane = "0" departSpeed="11.180000"/>
	<vehicle id="car_40" type="car5" route="3" depart="52" departLane = "0" departSpeed="11.180000"/>
	<vehicle id="car_41" type="car5" route="3" depart="55" departLane = "2" departSpeed="11.180000"/>
	<vehicle id="car_42" type="car8" route="2" depart="55" departLane = "1" departSpeed="11.180000"/>
	<vehicle id="car_43" type="car8" route="1" depart="56" departLane = "1" departSpeed="11.180000"/>
	<vehicle id="car_44" type="car9" route="3" depart="57" departLane = "1" departSpeed="11.180000"/>
	<vehicle id="car_45" type="car7" route="2" depart="60" departLane = "1" departSpeed="11.180000"/>
	<vehicle id="car_46" type="car8" route="2" depart="61" departLane = "2" departSpeed="11.180000"/>
	<vehicle id="car_47" type="car5" route="1" depart="61" departLane = "2" departSpeed="11.180000"/>
	<vehicle id="car_48" type="car6" route="0" depart="61" departLane = "0" departSpeed="11.180000"/>
	<vehicle id="car_49" type="car8" route="3" depart="62" departLane = "1" departSpeed="11.180000"/>
	<vehicle id="car_50" type="car5" route="0" depart="63" departLane = "2" departSpeed="11.180000"/>
	<vehicle id="car_51" type="car9" route="2" depart="64" departLane = "2" departSpeed="11.180000"/>
	<vehicle id="car_52" type="car6" route="1" depart="66" departLane = "1" departSpeed="11.180000"/>
	<vehicle id="car_53" type="car6" route="1" depart="68" departLane = "0" departSpeed="11.180000"/>
	<vehicle id="car_54" type="car9" route="0" depart="69" departLane = "2" departSpeed="11.180000"/>
	<vehicle id="car_55" type="car8" route="1" depart="70" departLane = "1" departSpeed="11.180000"/>
	<vehicle id="car_56" type="car8" route="0" depart="70" departLane = "0" departSpeed="11.180000"/>
	<vehicle id="car_57" type="car9" route="2" depart="71" departLane = "2" departSpeed="11.180000"/>
	<vehicle id="car_58" type="car9" route="1" depart="73" departLane = "1" departSpeed="11.180000"/>
	<vehicle id="car_59" type="car5" route="3" depart="77" departLane = "0" departSpeed="11.180000"/>
	<vehicle id="car_60" type="car9" route="1" depart="78" departLane = "2" departSpeed="11.180000"/>
	<vehicle id="car_61" type="car9" route="2" depart="79" departLane = "1" departSpeed="11.180000"/>
	<vehicle id="car_62" type="car6" route="3" depart="80" departLane = "2" departSpeed="11.180000"/>
	<vehicle id="car_63" type="car5" route="2" depart="82" departLane = "1" departSpeed="11.180000"/>
	<vehicle id="car_64" type="car6" route="1" depart="82" departLane = "1" departSpeed="11.180000"/>
	<vehicle id="car_65" type="car5" route="3" depart="83" departLane = "0" departSpeed="11.180000"/>
	<vehicle id="car_66" type="car8" route="1" depart="84" departLane = "0" departSpeed="11.180000"/>
	<vehicle id="car_67" type="car6" route="2" depart="85" departLane = "1" departSpeed="11.180000"/>
	<vehicle id="car_68" type="car9" route="3" depart="87" departLane = "2" departSpeed="11.180000"/>
	<vehicle id="car_69" type="car6" route="2" depart="87" departLane = "0" departSpeed="11.180000"/>
	<vehicle id="car_70" type="car6" route="0" depart="88" departLane = "2" departSpeed="11.180000"/>
	<vehicle id="car_71" type="car5" route="3" depart="89" departLane = "0" departSpeed="11.180000"/>
	<vehicle id="car_72" type="car8" route="0" depart="89" departLane = "1" departSpeed="11.180000"/>
	<vehicle id="car_73" type="car8" route="3" depart="90" departLane = "2" departSpeed="11.180000"/>
	<vehicle id="car_74" type="car7" route="3" depart="91" departLane = "1" departSpeed="11.180000"/>
	<vehicle id="car_75" type="car6" route="0" depart="91" departLane = "0" departSpeed="11.180000"/>
	<vehicle id="car_76" type="car9" route="3" depart="92" departLane = "2" departSpeed="11.180000"/>
	<vehicle id="car_77" type="car8" route="2" depart="94" departLane = "2" departSpeed="11.180000"/>
	<vehicle id="car_78" type="car8" route="3" depart="95" departLane = "2" departSpeed="11.180000"/>
	<vehicle id="car_79" type="car7" route="1" depart="95" departLane = "2" departSpeed="11.180000"/>
	<vehicle id="car_80" type="car5" route="0" depart="97" departLane = "0" departSpeed="11.180000"/>
	<vehicle id="car_81" type="car5" route="2" depart="100" departLane = "1" departSpeed="11.180000"/>
	<vehicle id="car_82" type="car8" route="2" depart="101" departLane = "1" departSpeed="11.180000"/>
	<vehicle id="car_83" type="car5" route="2" depart="104" departLane = "1" departSpeed="11.180000"/>
	<vehicle id="car_84" type="car7" route="0" depart="104" departLane = "1" departSpeed="11.180000"/>
	<vehicle id="car_85" type="car8" route="0" depart="106" departLane = "0" departSpeed="11.180000"/>
	<vehicle id="car_86" type="car8" route="3" depart="107" departLane = "1" departSpeed="11.180000"/>
	<vehicle id="car_87" type="car8" route="3" depart="108" departLane = "0" departSpeed="11.180000"/>
	<vehicle id="car_88" type="car9" route="2" depart="108" departLane = "0" departSpeed="11.180000"/>
	<vehicle id="car_89" type="car9" route="1" depart="108" departLane = "1" departSpeed="11.180000"/>
	<vehicle id="car_90" type="car6" route="2" depart="110" departLane = "2" departSpeed="11.180000"/>
	<vehicle id="car_91" type="car5" route="1" depart="113" departLane = "0" departSpeed="11.180000"/>
	<vehicle id="car_92" type="car6" route="0" depart="113" departLane = "0" departSpeed="11.180000"/>
	<vehicle id="car_93" type="car6" route="1" depart="118" departLane = "1" departSpeed="11.180000"/>
	<vehicle id="car_94" type="car5" route="3" depart="119" departLane = "1" departSpeed="11.180000"/>
	<vehicle id="car_95" type="car5" route="1" depart="120" departLane = "1" departSpeed="11.180000"/>
	<vehicle id="car_96" type="car9" route="3" depart="122" departLane = "1" departSpeed="11.180000"/>
	<vehicle id="car_97" type="car8" route="3" depart="125" departLane = "2" departSpeed="11.180000"/>
	<vehicle id="car_98" type="car6" route="2" depart="126" departLane = "0" departSpeed="11.180000"/>
	<vehicle id="car_99" type="car8" route="2" depart="127" departLane = "2" departSpeed="11.180000"/>
	<vehicle id="car_100" type="car6" route="1" depart="127" departLane = "0" departSpeed="11.180000"/>
	<vehicle id="car_101" type="car7" route="3" depart="129" departLane = "2" departSpeed="11.180000"/>
	<vehicle id="car_102" type="car9" route="0" depart="130" departLane = "2" departSpeed="11.180000"/>
	<vehicle id="car_103" type="car7" route="3" depart="133" departLane = "0" departSpeed="11.180000"/>
	<vehicle id="car_104" type="car7" route="0" depart="134" departLane = "2" departSpeed="11.180000"/>
	<vehicle id="car_105" type="car6" route="3" depart="137" departLane = "1" departSpeed="11.180000"/>
	<vehicle id="car_106" type="car6" route="0" depart="137" departLane = "1" departSpeed="11.180000"/>
	<vehicle id="car_107" type="car6" route="2" depart="138" departLane = "1" departSpeed="11.180000"/>
	<vehicle id="car_108" type="car5" route="3" depart="139" departLane = "2" departSpeed="11.180000"/>
	<vehicle id="car_109" type="car8" route="2" depart="140" departLane = "2" departSpeed="11.180000"/>
	<vehicle id="car_110" type="car6" route="3" depart="141" departLane = "2" departSpeed="11.180000"/>
	<vehicle id="car_111" type="car5" route="3" depart="142" departLane = "1" departSpeed="11.180000"/>
	<vehicle id="car_112" type="car5" route="0" depart="144" departLane = "1" departSpeed="11.180000"/>
	<vehicle id="car_113" type="car6" route="3" depart="145" departLane = "2" departSpeed="11.180000"/>
	<vehicle id="car_114" type="car5" route="2" depart="145" departLane = "1" departSpeed="11.180000"/>
	<vehicle id="car_115" type="car6" route="1" depart="145" departLane = "1" departSpeed="11.180000"/>
	<vehicle id="car_116" type="car7" route="0" depart="145" departLane = "0" departSpeed="11.180000"/>
	<vehicle id="car_117" type="car7" route="0" depart="146" departLane = "2" departSpeed="11.180000"/>
	<vehicle id="car_118" type="car8" route="1" depart="147" departLane = "0" departSpeed="11.180000"/>
	<vehicle id="car_119" type="car6" route="3" depart="149" departLane = "0" departSpeed="11.180000"/>
	<vehicle id="car_120" type="car8" route="1" depart="151" departLane = "2" departSpeed="11.180000"/>
	<vehicle id="car_121" type="car5" route="1" depart="152" departLane = "1" departSpeed="11.180000"/>
	<vehicle id="car_122" type="car8" route="0" depart="153" departLane = "1" departSpeed="11.180000"/>
	<vehicle id="car_123" type="car9" route="1" depart="154" departLane = "1" departSpeed="11.180000"/>
	<vehicle id="car_124" type="car5" route="3" depart="157" departLane = "1" departSpeed="11.180000"/>
	<vehicle id="car_125" type="car7" route="3" depart="159" departLane = "0" departSpeed="11.180000"/>
	<vehicle id="car_126" type="car6" route="2" depart="159" departLane = "1" departSpeed="11.180000"/>
	<vehicle id="car_127" type="car6" route="0" depart="159" departLane = "1" departSpeed="11.180000"/>
	<vehicle id="car_128" type="car6" route="2" depart="161" departLane = "2" departSpeed="11.180000"/>
	<vehicle id="car_129" type="car8" route="3" depart="162" departLane = "2" departSpeed="11.180000"/>
	<vehicle id="car_130" type="car6" route="1" depart="163" departLane = "0" departSpeed="11.180000"/>
	<vehicle id="car_131" type="car7" route="2" depart="165" departLane = "1" departSpeed="11.180000"/>
	<vehicle id="car_132" type="car5" route="3" depart="166" departLane = "2" departSpeed="11.180000"/>
	<vehicle id="car_133" type="car8" route="1" depart="167" departLane = "2" departSpeed="11.180000"/>
	<vehicle id="car_134" type="car6" route="2" depart="168" departLane = "2" departSpeed="11.180000"/>
	<vehicle id="car_135" type="car6" route="1" depart="168" departLane = "2" departSpeed="11.180000"/>
	<vehicle id="car_136" type="car6" route="3" depart="171" departLane = "0" departSpeed="11.180000"/>
	<vehicle id="car_137" type="car5" route="3" depart="173" departLane = "1" departSpeed="11.180000"/>
	<vehicle id="car_138" type="car5" route="2" depart="177" departLane = "2" departSpeed="11.180000"/>
	<vehicle id="car_139" type="car5" route="1" depart="177" departLane = "2" departSpeed="11.180000"/>
	<vehicle id="car_140" type="car5" route="0" depart="177" departLane = "1" departSpeed="11.180000"/>
	<vehicle id="car_141" type="car6" route="3" depart="180" departLane = "0" departSpeed="11.180000"/>
	<vehicle id="car_142" type="car6" route="1" depart="182" departLane = "1" departSpeed="11.180000"/>
	<vehicle id="car_143" type="car9" route="0" depart="184" departLane = "0" departSpeed="11.180000"/>
	<vehicle id="car_144" type="car8" route="2" depart="185" departLane = "2" departSpeed="11.180000"/>
	<vehicle id="car_145" type="car9" route="1" depart="186" departLane = "0" departSpeed="11.180000"/>
	<vehicle id="car_146" type="car8" route="1" depart="187" departLane = "2" departSpeed="11.180000"/>
	<vehicle id="car_147" type="car5" route="2" depart="189" departLane = "0" departSpeed="11.180000"/>
	<vehicle id="car_148" type="car9" route="1" depart="189" departLane = "0" departSpeed="11.180000"/>
	<vehicle id="car_149" type="car7" route="3" depart="190" departLane = "1" departSpeed="11.180000"/>
	<vehicle id="car_150" type="car8" route="1" depart="193" departLane = "1" departSpeed="11.180000"/>
	<vehicle id="car_151" type="car5" route="0" depart="193" departLane = "0" departSpeed="11.180000"/>
	<vehicle id="car_152" type="car8" route="3" depart="194" departLane = "2" departSpeed="11.180000"/>
	<vehicle id="car_153" type="car9" route="0" depart="196" departLane = "0" departSpeed="11.180000"/>
	<vehicle id="car_154" type="car5" route="2" depart="197" departLane = "0" departSpeed="11.180000"/>
	<vehicle id="car_155" type="car7" route="1" depart="197" departLane = "0" departSpeed="11.180000"/>
	<vehicle id="car_156" type="car6" route="0" depart="198" departLane = "2" departSpeed="11.180000"/>
	<vehicle id="car_157" type="car9" route="2" depart="201" departLane = "0" departSpeed="11.180000"/>
	<vehicle id="car_158" type="car5" route="3" depart="202" departLane = "1" departSpeed="11.180000"/>
	<vehicle id="car_159" type="car5" route="2" depart="202" departLane = "2" departSpeed="11.180000"/>
	<vehicle id="car_160" type="car8" route="2" depart="203" departLane = "2" departSpeed="11.180000"/>
	<vehicle id="car_161" type="car9" route="1" depart="204" departLane = "2" departSpeed="11.180000"/>
	<vehicle id="car_162" type="car9" route="3" depart="208" departLane = "1" departSpeed="11.180000"/>
	<vehicle id="car_163" type="car8" route="3" depart="210" departLane = "0" departSpeed="11.180000"/>
	<vehicle id="car_164" type="car7" route="0" depart="210" departLane = "1" departSpeed="11.180000"/>
	<vehicle id="car_165" type="car7" route="3" depart="211" departLane = "2" departSpeed="11.180000"/>
	<vehicle id="car_166" type="car9" route="2" depart="213" departLane = "1" departSpeed="11.180000"/>
	<vehicle id="car_167" type="car9" route="2" depart="215" departLane = "1" departSpeed="11.180000"/>
	<vehicle id="car_168" type="car9" route="1" depart="215" departLane = "1" departSpeed="11.180000"/>
	<vehicle id="car_169" type="car5" route="0" depart="215" departLane = "1" departSpeed="11.180000"/>
	<vehicle id="car_170" type="car6" route="2" depart="216" departLane = "0" departSpeed="11.180000"/>
	<vehicle id="car_171" type="car8" route="3" depart="218" departLane = "1" departSpeed="11.180000"/>
	<vehicle id="car_172" type="car5" route="1" depart="222" departLane = "2" departSpeed="11.180000"/>
	<vehicle id="car_173" type="car9" route="2" depart="223" departLane = "2" departSpeed="11.180000"/>
	<vehicle id="car_174" type="car5" route="2" depart="224" departLane = "0" departSpeed="11.180000"/>
	<vehicle id="car_175" type="car8" route="2" depart="225" departLane = "1" departSpeed="11.180000"/>
	<vehicle id="car_176" type="car9" route="3" depart="226" departLane = "0" departSpeed="11.180000"/>
	<vehicle id="car_177" type="car6" route="2" depart="226" departLane = "2" departSpeed="11.180000"/>
	<vehicle id="car_178" type="car6" route="1" depart="227" departLane = "1" departSpeed="11.180000"/>
	<vehicle id="car_179" type="car9" route="1" depart="228" departLane = "1" departSpeed="11.180000"/>
	<vehicle id="car_180" type="car9" route="2" depart="229" departLane = "0" departSpeed="11.180000"/>
	<vehicle id="car_181" type="car8" route="0" depart="232" departLane = "0" departSpeed="11.180000"/>
	<vehicle id="car_182" type="car5" route="3" depart="233" departLane = "0" departSpeed="11.180000"/>
	<vehicle id="car_183" type="car9" route="1" depart="233" departLane = "0" departSpeed="11.180000"/>
	<vehicle id="car_184" type="car8" route="0" depart="233" departLane = "2" departSpeed="11.180000"/>
	<vehicle id="car_185" type="car8" route="2" depart="234" departLane = "2" departSpeed="11.180000"/>
	<vehicle id="car_186" type="car7" route="0" depart="235" departLane = "2" departSpeed="11.180000"/>
	<vehicle id="car_187" type="car7" route="3" depart="236" departLane = "2" departSpeed="11.180000"/>
	<vehicle id="car_188" type="car7" route="3" depart="237" departLane = "0" departSpeed="11.180000"/>
	<vehicle id="car_189" type="car7" route="3" depart="238" departLane = "2" departSpeed="11.180000"/>
	<vehicle id="car_190" type="car8" route="1" depart="242" departLane = "1" departSpeed="11.180000"/>
	<vehicle id="car_191" type="car7" route="2" depart="245" departLane = "1" departSpeed="11.180000"/>
	<vehicle id="car_192" type="car5" route="3" depart="246" departLane = "1" departSpeed="11.180000"/>
	<vehicle id="car_193" type="car5" route="1" depart="247" departLane = "0" departSpeed="11.180000"/>
	<vehicle id="car_194" type="car9" route="3" depart="248" departLane = "2" departSpeed="11.180000"/>
	<vehicle id="car_195" type="car8" route="2" depart="248" departLane = "0" departSpeed="11.180000"/>
	<vehicle id="car_196" type="car6" route="1" depart="250" departLane = "1" departSpeed="11.180000"/>
	<vehicle id="car_197" type="car5" route="0" depart="252" departLane = "2" departSpeed="11.180000"/>
	<vehicle id="car_198" type="car6" route="3" depart="253" departLane = "2" departSpeed="11.180000"/>
	<vehicle id="car_199" type="car5" route="1" depart="254" departLane = "2" departSpeed="11.180000"/>
	<vehicle id="car_200" type="car8" route="0" depart="254" departLane = "1" departSpeed="11.180000"/>
	<vehicle id="car_201" type="car5" route="0" depart="257" departLane = "2" departSpeed="11.180000"/>
	<vehicle id="car_202" type="car8" route="2" depart="259" departLane = "1" departSpeed="11.180000"/>
	<vehicle id="car_203" type="car7" route="1" depart="260" departLane = "2" departSpeed="11.180000"/>
	<vehicle id="car_204" type="car5" route="3" depart="261" departLane = "1" departSpeed="11.180000"/>
	<vehicle id="car_205" type="car8" route="2" depart="262" departLane = "0" departSpeed="11.180000"/>
	<vehicle id="car_206" type="car6" route="0" depart="266" departLane = "0" departSpeed="11.180000"/>
	<vehicle id="car_207" type="car9" route="0" depart="267" departLane = "1" departSpeed="11.180000"/>
	<vehicle id="car_208" type="car9" route="0" depart="268" departLane = "1" departSpeed="11.180000"/>
	<vehicle id="car_209" type="car6" route="3" depart="270" departLane = "0" departSpeed="11.180000"/>
	<vehicle id="car_210" type="car6" route="0" depart="271" departLane = "0" departSpeed="11.180000"/>
	<vehicle id="car_211" type="car6" route="3" depart="273" departLane = "2" departSpeed="11.180000"/>
	<vehicle id="car_212" type="car8" route="0" depart="273" departLane = "0" departSpeed="11.180000"/>
	<vehicle id="car_213" type="car9" route="0" depart="275" departLane = "1" departSpeed="11.180000"/>
	<vehicle id="car_214" type="car8" route="2" depart="276" departLane = "1" departSpeed="11.180000"/>
	<vehicle id="car_215" type="car7" route="3" depart="278" departLane = "2" departSpeed="11.180000"/>
	<vehicle id="car_216" type="car9" route="1" depart="279" departLane = "2" departSpeed="11.180000"/>
	<vehicle id="car_217" type="car8" route="0" depart="279" departLane = "0" departSpeed="11.180000"/>
	<vehicle id="car_218" type="car7" route="2" depart="280" departLane = "1" departSpeed="11.180000"/>
	<vehicle id="car_219" type="car9" route="3" depart="281" departLane = "2" departSpeed="11.180000"/>
	<vehicle id="car_220" type="car8" route="2" depart="281" departLane = "0" departSpeed="11.180000"/>
	<vehicle id="car_221" type="car9" route="0" depart="282" departLane = "0" departSpeed="11.180000"/>
	<vehicle id="car_222" type="car7" route="3" depart="289" departLane = "1" departSpeed="11.180000"/>
	<vehicle id="car_223" type="car9" route="2" depart="289" departLane = "0" departSpeed="11.180000"/>
	<vehicle id="car_224" type="car7" route="1" depart="289" departLane = "0" departSpeed="11.180000"/>
	<vehicle id="car_225" type="car9" route="3" depart="290" departLane = "2" departSpeed="11.180000"/>
	<vehicle id="car_226" type="car8" route="2" depart="290" departLane = "1" departSpeed="11.180000"/>
	<vehicle id="car_227" type="car5" route="1" depart="291" departLane = "2" departSpeed="11.180000"/>
	<vehicle id="car_228" type="car7" route="0" depart="291" departLane = "1" departSpeed="11.180000"/>
	<vehicle id="car_229" type="car6" route="3" depart="292" departLane = "2" departSpeed="11.180000"/>
	<vehicle id="car_230" type="car8" route="1" depart="292" departLane = "1" departSpeed="11.180000"/>
	<vehicle id="car_231" type="car7" route="2" depart="294" departLane = "0" departSpeed="11.180000"/>
	<vehicle id="car_232" type="car7" route="1" depart="296" departLane = "2" departSpeed="11.180000"/>
	<vehicle id="car_233" type="car6" route="0" depart="296" departLane = "1" departSpeed="11.180000"/>
	<vehicle id="car_234" type="car9" route="3" depart="298" departLane = "1" departSpeed="11.180000"/>
	<vehicle id="car_235" type="car9" route="3" depart="299" departLane = "1" departSpeed="11.180000"/>
	<vehicle id="car_236" type="car8" route="2" depart="299" departLane = "2" departSpeed="11.180000"/>
</routes>
