<routes>

	<vType id="car5" accel="200.0" decel="200.0" speedFactor="2" sigma="0.0" length="5" minGap="3.000000" maxSpeed="11.180000" tau="0.100000" carFollowModel="CACC" color="255,255,255"/>
	<vType id="car6" accel="200.0" decel="200.0" speedFactor="2" sigma="0.0" length="6" minGap="3.000000" maxSpeed="11.180000" tau="0.100000" carFollowModel="CACC" color="255,255,255"/>
	<vType id="car7" accel="200.0" decel="200.0" speedFactor="2" sigma="0.0" length="7" minGap="3.000000" maxSpeed="11.180000" tau="0.100000" carFollowModel="CACC" color="255,255,255"/>
	<vType id="car8" accel="200.0" decel="200.0" speedFactor="2" sigma="0.0" length="8" minGap="3.000000" maxSpeed="11.180000" tau="0.100000" carFollowModel="CACC" color="255,255,255"/>
	<vType id="car9" accel="200.0" decel="200.0" speedFactor="2" sigma="0.0" length="9" minGap="3.000000" maxSpeed="11.180000" tau="0.100000" carFollowModel="CACC" color="255,255,255"/>

	<route id="7" edges=" 001_001_1"/>
	<route id="5" edges=" 001_002_2"/>
	<route id="2" edges=" 002_001_3"/>
	<route id="0" edges=" 001_001_4"/>
	<route id="6" edges=" 001_002_1"/>
	<route id="4" edges=" 002_002_2"/>
	<route id="3" edges=" 002_002_3"/>
	<route id="1" edges=" 002_001_4"/>

	<vehicle id="car_0" type="car8" route="5" depart="3" departLane = "1" departSpeed="11.180000"/>
	<vehicle id="car_1" type="car8" route="7" depart="4" departLane = "2" departSpeed="11.180000"/>
	<vehicle id="car_2" type="car9" route="3" depart="4" departLane = "0" departSpeed="11.180000"/>
	<vehicle id="car_3" type="car7" route="5" depart="5" departLane = "2" departSpeed="11.180000"/>
	<vehicle id="car_4" type="car6" route="4" depart="7" departLane = "0" departSpeed="11.180000"/>
	<vehicle id="car_5" type="car6" route="1" depart="10" departLane = "1" departSpeed="11.180000"/>
	<vehicle id="car_6" type="car9" route="4" depart="11" departLane = "2" departSpeed="11.180000"/>
	<vehicle id="car_7" type="car6" route="3" depart="11" departLane = "2" departSpeed="11.180000"/>
	<vehicle id="car_8" type="car5" route="2" depart="12" departLane = "0" departSpeed="11.180000"/>
	<vehicle id="car_9" type="car5" route="4" depart="12" departLane = "2" departSpeed="11.180000"/>
	<vehicle id="car_10" type="car5" route="7" depart="13" departLane = "2" departSpeed="11.180000"/>
	<vehicle id="car_11" type="car5" route="6" depart="13" departLane = "2" departSpeed="11.180000"/>
	<vehicle id="car_12" type="car8" route="6" depart="15" departLane = "2" departSpeed="11.180000"/>
	<vehicle id="car_13" type="car5" route="0" depart="16" departLane = "2" departSpeed="11.180000"/>
	<vehicle id="car_14" type="car9" route="7" depart="18" departLane = "0" departSpeed="11.180000"/>
	<vehicle id="car_15" type="car9" route="1" depart="18" departLane = "1" departSpeed="11.180000"/>
	<vehicle id="car_16" type="car6" route="5" depart="19" departLane = "1" departSpeed="11.180000"/>
	<vehicle id="car_17" type="car5" route="6" depart="19" departLane = "1" departSpeed="11.180000"/>
	<vehicle id="car_18" type="car6" route="4" depart="20" departLane = "0" departSpeed="11.180000"/>
	<vehicle id="car_19" type="car5" route="7" depart="21" departLane = "2" departSpeed="11.180000"/>
	<vehicle id="car_20" type="car8" route="4" depart="22" departLane = "0" departSpeed="11.180000"/>
	<vehicle id="car_21" type="car6" route="6" depart="23" departLane = "2" departSpeed="11.180000"/>
	<vehicle id="car_22" type="car9" route="5" depart="24" departLane = "2" departSpeed="11.180000"/>
	<vehicle id="car_23" type="car6" route="5" depart="25" departLane = "1" departSpeed="11.180000"/>
	<vehicle id="car_24" type="car6" route="6" depart="25" departLane = "0" departSpeed="11.180000"/>
	<vehicle id="car_25" type="car5" route="1" depart="25" departLane = "1" departSpeed="11.180000"/>
	<vehicle id="car_26" type="car9" route="1" depart="26" departLane = "1" departSpeed="11.180000"/>
	<vehicle id="car_27" type="car7" route="3" depart="27" departLane = "2" departSpeed="11.180000"/>
	<vehicle id="car_28" type="car6" route="4" depart="28" departLane = "0" departSpeed="11.180000"/>
	<vehicle id="car_29" type="car8" route="3" depart="28" departLane = "2" departSpeed="11.180000"/>
	<vehicle id="car_30" type="car5" route="2" depart="30" departLane = "2" departSpeed="11.180000"/>
	<vehicle id="car_31" type="car9" route="1" depart="31" departLane = "1" departSpeed="11.180000"/>
	<vehicle id="car_32" type="car7" route="6" depart="33" departLane = "1" departSpeed="11.180000"/>
	<vehicle id="car_33" type="car6" route="7" depart="35" departLane = "0" departSpeed="11.180000"/>
	<vehicle id="car_34" type="car8" route="5" depart="35" departLane = "1" departSpeed="11.180000"/>
	<vehicle id="car_35" type="car5" route="7" depart="36" departLane = "2" departSpeed="11.180000"/>
	<vehicle id="car_36" type="car6" route="3" depart="37" departLane = "1" departSpeed="11.180000"/>
	<vehicle id="car_37" type="car6" route="7" depart="40" departLane = "1" departSpeed="11.180000"/>
	<vehicle id="car_38" type="car8" route="5" depart="40" departLane = "1" departSpeed="11.180000"/>
	<vehicle id="car_39" type="car8" route="2" depart="40" departLane = "0" departSpeed="11.180000"/>
	<vehicle id="car_40" type="car9" route="0" depart="40" departLane = "0" departSpeed="11.180000"/>
	<vehicle id="car_41" type="car9" route="1" depart="41" departLane = "1" departSpeed="11.180000"/>
	<vehicle id="car_42" type="car8" route="5" depart="43" departLane = "1" departSpeed="11.180000"/>
	<vehicle id="car_43" type="car5" route="4" depart="43" departLane = "1" departSpeed="11.180000"/>
	<vehicle id="car_44" type="car6" route="1" depart="45" departLane = "2" departSpeed="11.180000"/>
	<vehicle id="car_45" type="car5" route="5" depart="48" departLane = "2" departSpeed="11.180000"/>
	<vehicle id="car_46" type="car6" route="0" depart="49" departLane = "1" departSpeed="11.180000"/>
	<vehicle id="car_47" type="car6" route="3" depart="51" departLane = "2" departSpeed="11.180000"/>
	<vehicle id="car_48" type="car7" route="4" depart="53" departLane = "1" departSpeed="11.180000"/>
	<vehicle id="car_49" type="car7" route="1" depart="56" departLane = "2" departSpeed="11.180000"/>
	<vehicle id="car_50" type="car7" route="7" depart="58" departLane = "2" departSpeed="11.180000"/>
	<vehicle id="car_51" type="car8" route="5" depart="58" departLane = "2" departSpeed="11.180000"/>
	<vehicle id="car_52" type="car7" route="5" depart="59" departLane = "1" departSpeed="11.180000"/>
	<vehicle id="car_53" type="car7" route="5" depart="63" departLane = "0" departSpeed="11.180000"/>
	<vehicle id="car_54" type="car9" route="2" depart="63" departLane = "0" departSpeed="11.180000"/>
	<vehicle id="car_55" type="car8" route="5" depart="64" departLane = "0" departSpeed="11.180000"/>
	<vehicle id="car_56" type="car7" route="0" depart="64" departLane = "2" departSpeed="11.180000"/>
	<vehicle id="car_57" type="car8" route="4" depart="67" departLane = "0" departSpeed="11.180000"/>
	<vehicle id="car_58" type="car9" route="4" depart="68" departLane = "1" departSpeed="11.180000"/>
	<vehicle id="car_59" type="car9" route="1" depart="68" departLane = "2" departSpeed="11.180000"/>
	<vehicle id="car_60" type="car6" route="4" depart="69" departLane = "1" departSpeed="11.180000"/>
	<vehicle id="car_61" type="car5" route="1" depart="69" departLane = "1" departSpeed="11.180000"/>
	<vehicle id="car_62" type="car5" route="0" depart="71" departLane = "0" departSpeed="11.180000"/>
	<vehicle id="car_63" type="car8" route="2" depart="73" departLane = "2" departSpeed="11.180000"/>
	<vehicle id="car_64" type="car8" route="0" depart="73" departLane = "1" departSpeed="11.180000"/>
	<vehicle id="car_65" type="car6" route="4" depart="73" departLane = "0" departSpeed="11.180000"/>
	<vehicle id="car_66" type="car8" route="5" depart="74" departLane = "2" departSpeed="11.180000"/>
	<vehicle id="car_67" type="car6" route="2" depart="74" departLane = "0" departSpeed="11.180000"/>
	<vehicle id="car_68" type="car9" route="2" depart="76" departLane = "2" departSpeed="11.180000"/>
	<vehicle id="car_69" type="car9" route="7" depart="77" departLane = "2" departSpeed="11.180000"/>
	<vehicle id="car_70" type="car6" route="1" depart="79" departLane = "1" departSpeed="11.180000"/>
	<vehicle id="car_71" type="car6" route="2" depart="80" departLane = "1" departSpeed="11.180000"/>
	<vehicle id="car_72" type="car9" route="6" depart="81" departLane = "1" departSpeed="11.180000"/>
	<vehicle id="car_73" type="car6" route="3" depart="81" departLane = "2" departSpeed="11.180000"/>
	<vehicle id="car_74" type="car5" route="0" depart="83" departLane = "1" departSpeed="11.180000"/>
	<vehicle id="car_75" type="car5" route="1" depart="84" departLane = "0" departSpeed="11.180000"/>
	<vehicle id="car_76" type="car6" route="7" depart="85" departLane = "2" departSpeed="11.180000"/>
	<vehicle id="car_77" type="car5" route="5" depart="85" departLane = "1" departSpeed="11.180000"/>
	<vehicle id="car_78" type="car7" route="0" depart="86" departLane = "2" departSpeed="11.180000"/>
	<vehicle id="car_79" type="car7" route="1" depart="89" departLane = "2" departSpeed="11.180000"/>
	<vehicle id="car_80" type="car5" route="7" depart="90" departLane = "1" departSpeed="11.180000"/>
	<vehicle id="car_81" type="car9" route="2" depart="91" departLane = "1" departSpeed="11.180000"/>
	<vehicle id="car_82" type="car5" route="6" depart="92" departLane = "1" departSpeed="11.180000"/>
	<vehicle id="car_83" type="car6" route="2" depart="95" departLane = "1" departSpeed="11.180000"/>
	<vehicle id="car_84" type="car8" route="4" depart="96" departLane = "2" departSpeed="11.180000"/>
	<vehicle id="car_85" type="car6" route="0" depart="97" departLane = "2" departSpeed="11.180000"/>
	<vehicle id="car_86" type="car7" route="2" depart="98" departLane = "1" departSpeed="11.180000"/>
	<vehicle id="car_87" type="car9" route="6" depart="100" departLane = "0" departSpeed="11.180000"/>
	<vehicle id="car_88" type="car5" route="1" depart="103" departLane = "1" departSpeed="11.180000"/>
	<vehicle id="car_89" type="car7" route="5" depart="106" departLane = "1" departSpeed="11.180000"/>
	<vehicle id="car_90" type="car5" route="2" depart="106" departLane = "2" departSpeed="11.180000"/>
	<vehicle id="car_91" type="car5" route="0" depart="106" departLane = "1" departSpeed="11.180000"/>
	<vehicle id="car_92" type="car6" route="6" depart="107" departLane = "0" departSpeed="11.180000"/>
	<vehicle id="car_93" type="car6" route="5" depart="109" departLane = "1" departSpeed="11.180000"/>
	<vehicle id="car_94" type="car5" route="0" depart="112" departLane = "2" departSpeed="11.180000"/>
	<vehicle id="car_95" type="car5" route="6" depart="112" departLane = "0" departSpeed="11.180000"/>
	<vehicle id="car_96" type="car5" route="5" depart="114" departLane = "2" departSpeed="11.180000"/>
	<vehicle id="car_97" type="car5" route="4" depart="116" departLane = "0" departSpeed="11.180000"/>
	<vehicle id="car_98" type="car8" route="2" depart="117" departLane = "2" departSpeed="11.180000"/>
	<vehicle id="car_99" type="car9" route="5" depart="118" departLane = "0" departSpeed="11.180000"/>
	<vehicle id="car_100" type="car9" route="4" depart="118" departLane = "2" departSpeed="11.180000"/>
	<vehicle id="car_101" type="car7" route="3" depart="118" departLane = "0" departSpeed="11.180000"/>
	<vehicle id="car_102" type="car8" route="3" depart="119" departLane = "0" departSpeed="11.180000"/>
	<vehicle id="car_103" type="car7" route="3" depart="121" departLane = "2" departSpeed="11.180000"/>
	<vehicle id="car_104" type="car5" route="1" depart="121" departLane = "2" departSpeed="11.180000"/>
	<vehicle id="car_105" type="car8" route="0" depart="122" departLane = "2" departSpeed="11.180000"/>
	<vehicle id="car_106" type="car8" route="5" depart="127" departLane = "2" departSpeed="11.180000"/>
	<vehicle id="car_107" type="car5" route="7" depart="131" departLane = "1" departSpeed="11.180000"/>
	<vehicle id="car_108" type="car9" route="0" depart="135" departLane = "2" departSpeed="11.180000"/>
	<vehicle id="car_109" type="car7" route="3" depart="136" departLane = "2" departSpeed="11.180000"/>
	<vehicle id="car_110" type="car6" route="6" depart="138" departLane = "2" departSpeed="11.180000"/>
	<vehicle id="car_111" type="car8" route="6" depart="139" departLane = "0" departSpeed="11.180000"/>
	<vehicle id="car_112" type="car9" route="1" depart="139" departLane = "0" departSpeed="11.180000"/>
	<vehicle id="car_113" type="car5" route="2" depart="141" departLane = "1" departSpeed="11.180000"/>
	<vehicle id="car_114" type="car8" route="4" depart="141" departLane = "0" departSpeed="11.180000"/>
	<vehicle id="car_115" type="car6" route="2" depart="142" departLane = "2" departSpeed="11.180000"/>
	<vehicle id="car_116" type="car8" route="0" depart="142" departLane = "2" departSpeed="11.180000"/>
	<vehicle id="car_117" type="car7" route="1" depart="143" departLane = "2" departSpeed="11.180000"/>
	<vehicle id="car_118" type="car7" route="1" depart="145" departLane = "2" departSpeed="11.180000"/>
	<vehicle id="car_119" type="car7" route="5" depart="147" departLane = "0" departSpeed="11.180000"/>
	<vehicle id="car_120" type="car8" route="6" depart="149" departLane = "1" departSpeed="11.180000"/>
	<vehicle id="car_121" type="car5" route="1" depart="149" departLane = "1" departSpeed="11.180000"/>
	<vehicle id="car_122" type="car8" route="3" depart="150" departLane = "2" departSpeed="11.180000"/>
	<vehicle id="car_123" type="car9" route="1" depart="150" departLane = "2" departSpeed="11.180000"/>
	<vehicle id="car_124" type="car8" route="7" depart="151" departLane = "0" departSpeed="11.180000"/>
	<vehicle id="car_125" type="car6" route="5" depart="152" departLane = "1" departSpeed="11.180000"/>
	<vehicle id="car_126" type="car8" route="1" depart="154" departLane = "0" departSpeed="11.180000"/>
	<vehicle id="car_127" type="car5" route="6" depart="156" departLane = "2" departSpeed="11.180000"/>
	<vehicle id="car_128" type="car7" route="6" depart="158" departLane = "0" departSpeed="11.180000"/>
	<vehicle id="car_129" type="car6" route="6" depart="162" departLane = "0" departSpeed="11.180000"/>
	<vehicle id="car_130" type="car6" route="7" depart="165" departLane = "0" departSpeed="11.180000"/>
	<vehicle id="car_131" type="car6" route="1" depart="165" departLane = "0" departSpeed="11.180000"/>
	<vehicle id="car_132" type="car6" route="6" depart="166" departLane = "2" departSpeed="11.180000"/>
	<vehicle id="car_133" type="car9" route="1" depart="166" departLane = "2" departSpeed="11.180000"/>
	<vehicle id="car_134" type="car6" route="4" depart="167" departLane = "2" departSpeed="11.180000"/>
	<vehicle id="car_135" type="car7" route="6" depart="169" departLane = "2" departSpeed="11.180000"/>
	<vehicle id="car_136" type="car9" route="4" depart="169" departLane = "1" departSpeed="11.180000"/>
	<vehicle id="car_137" type="car8" route="7" depart="170" departLane = "2" departSpeed="11.180000"/>
	<vehicle id="car_138" type="car7" route="4" depart="170" departLane = "1" departSpeed="11.180000"/>
	<vehicle id="car_139" type="car9" route="6" depart="171" departLane = "2" departSpeed="11.180000"/>
	<vehicle id="car_140" type="car7" route="1" depart="171" departLane = "1" departSpeed="11.180000"/>
	<vehicle id="car_141" type="car9" route="4" depart="172" departLane = "0" departSpeed="11.180000"/>
	<vehicle id="car_142" type="car9" route="4" depart="176" departLane = "0" departSpeed="11.180000"/>
	<vehicle id="car_143" type="car5" route="3" depart="178" departLane = "2" departSpeed="11.180000"/>
	<vehicle id="car_144" type="car7" route="1" depart="178" departLane = "1" departSpeed="11.180000"/>
	<vehicle id="car_145" type="car6" route="7" depart="179" departLane = "2" departSpeed="11.180000"/>
	<vehicle id="car_146" type="car8" route="2" depart="179" departLane = "1" departSpeed="11.180000"/>
	<vehicle id="car_147" type="car7" route="6" depart="181" departLane = "2" departSpeed="11.180000"/>
	<vehicle id="car_148" type="car8" route="4" depart="185" departLane = "0" departSpeed="11.180000"/>
	<vehicle id="car_149" type="car6" route="7" depart="187" departLane = "2" departSpeed="11.180000"/>
	<vehicle id="car_150" type="car5" route="0" depart="188" departLane = "2" departSpeed="11.180000"/>
	<vehicle id="car_151" type="car6" route="0" depart="190" departLane = "2" departSpeed="11.180000"/>
	<vehicle id="car_152" type="car9" route="1" depart="194" departLane = "0" departSpeed="11.180000"/>
	<vehicle id="car_153" type="car6" route="6" depart="196" departLane = "1" departSpeed="11.180000"/>
	<vehicle id="car_154" type="car9" route="4" depart="197" departLane = "1" departSpeed="11.180000"/>
	<vehicle id="car_155" type="car8" route="2" depart="199" departLane = "2" departSpeed="11.180000"/>
	<vehicle id="car_156" type="car6" route="6" depart="200" departLane = "1" departSpeed="11.180000"/>
	<vehicle id="car_157" type="car9" route="4" depart="204" departLane = "0" departSpeed="11.180000"/>
	<vehicle id="car_158" type="car6" route="2" depart="205" departLane = "0" departSpeed="11.180000"/>
	<vehicle id="car_159" type="car8" route="5" depart="206" departLane = "0" departSpeed="11.180000"/>
	<vehicle id="car_160" type="car8" route="3" depart="206" departLane = "2" departSpeed="11.180000"/>
	<vehicle id="car_161" type="car7" route="4" depart="209" departLane = "0" departSpeed="11.180000"/>
	<vehicle id="car_162" type="car7" route="1" depart="209" departLane = "0" departSpeed="11.180000"/>
	<vehicle id="car_163" type="car9" route="5" depart="212" departLane = "0" departSpeed="11.180000"/>
	<vehicle id="car_164" type="car8" route="3" depart="213" departLane = "1" departSpeed="11.180000"/>
	<vehicle id="car_165" type="car9" route="7" depart="214" departLane = "0" departSpeed="11.180000"/>
	<vehicle id="car_166" type="car9" route="6" depart="214" departLane = "0" departSpeed="11.180000"/>
	<vehicle id="car_167" type="car7" route="3" depart="214" departLane = "0" departSpeed="11.180000"/>
	<vehicle id="car_168" type="car6" route="0" depart="215" departLane = "2" departSpeed="11.180000"/>
	<vehicle id="car_169" type="car8" route="2" depart="216" departLane = "2" departSpeed="11.180000"/>
	<vehicle id="car_170" type="car8" route="1" depart="216" departLane = "2" departSpeed="11.180000"/>
	<vehicle id="car_171" type="car6" route="7" depart="222" departLane = "0" departSpeed="11.180000"/>
	<vehicle id="car_172" type="car5" route="0" depart="223" departLane = "0" departSpeed="11.180000"/>
	<vehicle id="car_173" type="car5" route="5" depart="225" departLane = "2" departSpeed="11.180000"/>
	<vehicle id="car_174" type="car5" route="6" depart="225" departLane = "2" departSpeed="11.180000"/>
	<vehicle id="car_175" type="car9" route="4" depart="225" departLane = "1" departSpeed="11.180000"/>
	<vehicle id="car_176" type="car9" route="2" depart="229" departLane = "2" departSpeed="11.180000"/>
	<vehicle id="car_177" type="car6" route="4" depart="229" departLane = "0" departSpeed="11.180000"/>
	<vehicle id="car_178" type="car8" route="0" depart="234" departLane = "2" departSpeed="11.180000"/>
	<vehicle id="car_179" type="car6" route="4" depart="236" departLane = "0" departSpeed="11.180000"/>
	<vehicle id="car_180" type="car6" route="1" depart="237" departLane = "2" departSpeed="11.180000"/>
	<vehicle id="car_181" type="car6" route="0" depart="239" departLane = "1" departSpeed="11.180000"/>
	<vehicle id="car_182" type="car6" route="3" depart="239" departLane = "1" departSpeed="11.180000"/>
	<vehicle id="car_183" type="car7" route="1" depart="239" departLane = "2" departSpeed="11.180000"/>
	<vehicle id="car_184" type="car6" route="2" depart="241" departLane = "1" departSpeed="11.180000"/>
	<vehicle id="car_185" type="car8" route="3" depart="245" departLane = "2" departSpeed="11.180000"/>
	<vehicle id="car_186" type="car8" route="5" depart="246" departLane = "0" departSpeed="11.180000"/>
	<vehicle id="car_187" type="car9" route="2" depart="246" departLane = "0" departSpeed="11.180000"/>
	<vehicle id="car_188" type="car5" route="5" depart="250" departLane = "0" departSpeed="11.180000"/>
	<vehicle id="car_189" type="car7" route="2" depart="250" departLane = "1" departSpeed="11.180000"/>
	<vehicle id="car_190" type="car7" route="6" depart="250" departLane = "2" departSpeed="11.180000"/>
	<vehicle id="car_191" type="car7" route="6" depart="251" departLane = "1" departSpeed="11.180000"/>
	<vehicle id="car_192" type="car7" route="4" depart="253" departLane = "2" departSpeed="11.180000"/>
	<vehicle id="car_193" type="car9" route="1" depart="258" departLane = "2" departSpeed="11.180000"/>
	<vehicle id="car_194" type="car7" route="6" depart="259" departLane = "2" departSpeed="11.180000"/>
	<vehicle id="car_195" type="car6" route="5" depart="260" departLane = "0" departSpeed="11.180000"/>
	<vehicle id="car_196" type="car5" route="0" depart="261" departLane = "0" departSpeed="11.180000"/>
	<vehicle id="car_197" type="car9" route="5" depart="262" departLane = "1" departSpeed="11.180000"/>
	<vehicle id="car_198" type="car5" route="4" depart="263" departLane = "0" departSpeed="11.180000"/>
	<vehicle id="car_199" type="car8" route="7" depart="267" departLane = "2" departSpeed="11.180000"/>
	<vehicle id="car_200" type="car5" route="2" depart="267" departLane = "1" departSpeed="11.180000"/>
	<vehicle id="car_201" type="car8" route="1" depart="267" departLane = "1" departSpeed="11.180000"/>
	<vehicle id="car_202" type="car9" route="4" depart="268" departLane = "2" departSpeed="11.180000"/>
	<vehicle id="car_203" type="car8" route="1" depart="271" departLane = "2" departSpeed="11.180000"/>
	<vehicle id="car_204" type="car8" route="5" depart="274" departLane = "1" departSpeed="11.180000"/>
	<vehicle id="car_205" type="car6" route="2" depart="274" departLane = "1" departSpeed="11.180000"/>
	<vehicle id="car_206" type="car5" route="7" depart="275" departLane = "0" departSpeed="11.180000"/>
	<vehicle id="car_207" type="car9" route="0" depart="275" departLane = "2" departSpeed="11.180000"/>
	<vehicle id="car_208" type="car7" route="4" depart="277" departLane = "0" departSpeed="11.180000"/>
	<vehicle id="car_209" type="car5" route="0" depart="278" departLane = "1" departSpeed="11.180000"/>
	<vehicle id="car_210" type="car9" route="4" depart="278" departLane = "0" departSpeed="11.180000"/>
	<vehicle id="car_211" type="car6" route="5" depart="279" departLane = "0" departSpeed="11.180000"/>
	<vehicle id="car_212" type="car5" route="0" depart="279" departLane = "2" departSpeed="11.180000"/>
	<vehicle id="car_213" type="car8" route="1" depart="279" departLane = "2" departSpeed="11.180000"/>
	<vehicle id="car_214" type="car9" route="1" depart="280" departLane = "0" departSpeed="11.180000"/>
	<vehicle id="car_215" type="car5" route="5" depart="283" departLane = "0" departSpeed="11.180000"/>
	<vehicle id="car_216" type="car6" route="1" depart="285" departLane = "1" departSpeed="11.180000"/>
	<vehicle id="car_217" type="car7" route="4" depart="286" departLane = "0" departSpeed="11.180000"/>
	<vehicle id="car_218" type="car8" route="3" depart="286" departLane = "2" departSpeed="11.180000"/>
	<vehicle id="car_219" type="car7" route="4" depart="289" departLane = "2" departSpeed="11.180000"/>
	<vehicle id="car_220" type="car9" route="1" depart="289" departLane = "0" departSpeed="11.180000"/>
	<vehicle id="car_221" type="car9" route="4" depart="290" departLane = "0" departSpeed="11.180000"/>
	<vehicle id="car_222" type="car5" route="2" depart="298" departLane = "1" departSpeed="11.180000"/>
	<vehicle id="car_223" type="car8" route="3" depart="298" departLane = "2" departSpeed="11.180000"/>
	<vehicle id="car_224" type="car9" route="2" depart="302" departLane = "1" departSpeed="11.180000"/>
	<vehicle id="car_225" type="car6" route="1" depart="302" departLane = "0" departSpeed="11.180000"/>
	<vehicle id="car_226" type="car8" route="5" depart="303" departLane = "0" departSpeed="11.180000"/>
	<vehicle id="car_227" type="car5" route="2" depart="304" departLane = "0" departSpeed="11.180000"/>
	<vehicle id="car_228" type="car8" route="1" depart="304" departLane = "1" departSpeed="11.180000"/>
	<vehicle id="car_229" type="car7" route="5" depart="305" departLane = "1" departSpeed="11.180000"/>
	<vehicle id="car_230" type="car6" route="5" depart="306" departLane = "1" departSpeed="11.180000"/>
	<vehicle id="car_231" type="car7" route="7" depart="309" departLane = "2" departSpeed="11.180000"/>
	<vehicle id="car_232" type="car8" route="2" depart="310" departLane = "1" departSpeed="11.180000"/>
	<vehicle id="car_233" type="car9" route="5" depart="313" departLane = "1" departSpeed="11.180000"/>
	<vehicle id="car_234" type="car7" route="5" depart="314" departLane = "0" departSpeed="11.180000"/>
	<vehicle id="car_235" type="car9" route="4" depart="316" departLane = "0" departSpeed="11.180000"/>
	<vehicle id="car_236" type="car5" route="6" depart="320" departLane = "0" departSpeed="11.180000"/>
	<vehicle id="car_237" type="car6" route="3" depart="321" departLane = "2" departSpeed="11.180000"/>
	<vehicle id="car_238" type="car6" route="0" depart="322" departLane = "1" departSpeed="11.180000"/>
	<vehicle id="car_239" type="car8" route="0" depart="324" departLane = "1" departSpeed="11.180000"/>
	<vehicle id="car_240" type="car5" route="2" depart="327" departLane = "2" departSpeed="11.180000"/>
	<vehicle id="car_241" type="car5" route="5" depart="331" departLane = "0" departSpeed="11.180000"/>
	<vehicle id="car_242" type="car7" route="6" depart="332" departLane = "0" departSpeed="11.180000"/>
	<vehicle id="car_243" type="car9" route="1" depart="332" departLane = "2" departSpeed="11.180000"/>
	<vehicle id="car_244" type="car8" route="6" depart="334" departLane = "0" departSpeed="11.180000"/>
	<vehicle id="car_245" type="car7" route="2" depart="335" departLane = "0" departSpeed="11.180000"/>
	<vehicle id="car_246" type="car9" route="7" depart="336" departLane = "1" departSpeed="11.180000"/>
	<vehicle id="car_247" type="car8" route="1" depart="337" departLane = "1" departSpeed="11.180000"/>
	<vehicle id="car_248" type="car9" route="0" depart="339" departLane = "2" departSpeed="11.180000"/>
	<vehicle id="car_249" type="car8" route="1" depart="340" departLane = "0" departSpeed="11.180000"/>
	<vehicle id="car_250" type="car6" route="1" depart="341" departLane = "1" departSpeed="11.180000"/>
	<vehicle id="car_251" type="car9" route="7" depart="342" departLane = "0" departSpeed="11.180000"/>
	<vehicle id="car_252" type="car5" route="7" depart="344" departLane = "2" departSpeed="11.180000"/>
	<vehicle id="car_253" type="car9" route="2" depart="345" departLane = "1" departSpeed="11.180000"/>
	<vehicle id="car_254" type="car8" route="3" depart="345" departLane = "1" departSpeed="11.180000"/>
	<vehicle id="car_255" type="car5" route="4" depart="346" departLane = "2" departSpeed="11.180000"/>
	<vehicle id="car_256" type="car6" route="3" depart="346" departLane = "1" departSpeed="11.180000"/>
	<vehicle id="car_257" type="car9" route="7" depart="347" departLane = "1" departSpeed="11.180000"/>
	<vehicle id="car_258" type="car5" route="2" depart="347" departLane = "0" departSpeed="11.180000"/>
	<vehicle id="car_259" type="car5" route="1" depart="347" departLane = "1" departSpeed="11.180000"/>
	<vehicle id="car_260" type="car5" route="2" depart="350" departLane = "1" departSpeed="11.180000"/>
	<vehicle id="car_261" type="car8" route="7" depart="351" departLane = "0" departSpeed="11.180000"/>
	<vehicle id="car_262" type="car5" route="0" depart="353" departLane = "0" departSpeed="11.180000"/>
	<vehicle id="car_263" type="car6" route="7" depart="354" departLane = "2" departSpeed="11.180000"/>
	<vehicle id="car_264" type="car9" route="2" depart="357" departLane = "2" departSpeed="11.180000"/>
	<vehicle id="car_265" type="car7" route="1" depart="358" departLane = "0" departSpeed="11.180000"/>
	<vehicle id="car_266" type="car5" route="4" depart="363" departLane = "1" departSpeed="11.180000"/>
	<vehicle id="car_267" type="car6" route="1" depart="365" departLane = "0" departSpeed="11.180000"/>
	<vehicle id="car_268" type="car8" route="4" depart="367" departLane = "1" departSpeed="11.180000"/>
	<vehicle id="car_269" type="car9" route="4" depart="370" departLane = "2" departSpeed="11.180000"/>
	<vehicle id="car_270" type="car5" route="1" depart="370" departLane = "1" departSpeed="11.180000"/>
	<vehicle id="car_271" type="car6" route="5" depart="371" departLane = "0" departSpeed="11.180000"/>
	<vehicle id="car_272" type="car9" route="0" depart="373" departLane = "2" departSpeed="11.180000"/>
	<vehicle id="car_273" type="car6" route="4" depart="373" departLane = "0" departSpeed="11.180000"/>
	<vehicle id="car_274" type="car9" route="1" depart="375" departLane = "1" departSpeed="11.180000"/>
	<vehicle id="car_275" type="car9" route="4" depart="377" departLane = "2" departSpeed="11.180000"/>
	<vehicle id="car_276" type="car7" route="7" depart="381" departLane = "2" departSpeed="11.180000"/>
	<vehicle id="car_277" type="car7" route="0" depart="385" departLane = "1" departSpeed="11.180000"/>
	<vehicle id="car_278" type="car9" route="5" depart="386" departLane = "1" departSpeed="11.180000"/>
	<vehicle id="car_279" type="car6" route="4" depart="387" departLane = "0" departSpeed="11.180000"/>
	<vehicle id="car_280" type="car5" route="1" depart="387" departLane = "1" departSpeed="11.180000"/>
	<vehicle id="car_281" type="car5" route="0" depart="388" departLane = "2" departSpeed="11.180000"/>
	<vehicle id="car_282" type="car8" route="1" depart="388" departLane = "2" departSpeed="11.180000"/>
	<vehicle id="car_283" type="car8" route="2" depart="389" departLane = "2" departSpeed="11.180000"/>
	<vehicle id="car_284" type="car8" route="0" depart="390" departLane = "1" departSpeed="11.180000"/>
	<vehicle id="car_285" type="car7" route="7" depart="392" departLane = "2" departSpeed="11.180000"/>
	<vehicle id="car_286" type="car5" route="0" depart="392" departLane = "0" departSpeed="11.180000"/>