<?xml version="1.0" encoding="UTF-8"?>

<!-- generated on 03/19/21 20:44:13 by Eclipse SUMO netconvert Version 1.8.0
<configuration xmlns:xsi="http://www.w3.org/2001/XMLSchema-instance" xsi:noNamespaceSchemaLocation="http://sumo.dlr.de/xsd/netconvertConfiguration.xsd">

    <input>
        <node-files value="./tmp/lane.nod.xml"/>
        <edge-files value="./tmp/lane.edg.xml"/>
        <connection-files value="./tmp/lane.con.xml"/>
    </input>

    <output>
        <output-file value="./tmp/lane4by4.net.xml"/>
    </output>

    <report>
        <aggregate-warnings value="5"/>
    </report>

</configuration>
-->

<net version="1.6" junctionCornerDetail="5" limitTurnSpeed="5.50" xmlns:xsi="http://www.w3.org/2001/XMLSchema-instance" xsi:noNamespaceSchemaLocation="http://sumo.dlr.de/xsd/net_file.xsd">

    <location netOffset="236.40,236.40" convBoundary="0.00,0.00,1608.80,1608.80" origBoundary="-236.40,-236.40,1372.40,1372.40" projParameter="!"/>

    <edge id=":001_001_0" function="internal">
        <lane id=":001_001_0_0" index="0" speed="6.51" length="9.03" width="3.20" shape="455.60,477.20 455.25,474.75 454.20,473.00 452.45,471.95 450.00,471.60"/>
    </edge>
    <edge id=":001_001_1" function="internal">
        <lane id=":001_001_1_0" index="0" speed="11.18" length="27.20" width="3.20" shape="455.60,477.20 455.60,450.00"/>
    </edge>
    <edge id=":001_001_2" function="internal">
        <lane id=":001_001_2_0" index="0" speed="11.18" length="6.41" width="3.20" shape="455.60,477.20 457.43,471.05"/>
    </edge>
    <edge id=":001_001_3" function="internal">
        <lane id=":001_001_3_0" index="0" speed="8.00" length="5.93" width="3.20" shape="458.80,477.20 458.25,473.35 457.20,471.60"/>
    </edge>
    <edge id=":001_001_4" function="internal">
        <lane id=":001_001_4_0" index="0" speed="11.18" length="27.20" width="3.20" shape="458.80,477.20 458.80,450.00"/>
    </edge>
    <edge id=":001_001_5" function="internal">
        <lane id=":001_001_5_0" index="0" speed="11.07" length="11.48" width="3.20" shape="458.80,477.20 460.46,470.67 463.24,466.83"/>
    </edge>
    <edge id=":001_001_6" function="internal">
        <lane id=":001_001_6_0" index="0" speed="9.26" length="6.96" width="3.20" shape="462.00,477.20 461.25,471.95 460.40,470.53"/>
    </edge>
    <edge id=":001_001_7" function="internal">
        <lane id=":001_001_7_0" index="0" speed="11.18" length="27.20" width="3.20" shape="462.00,477.20 462.00,450.00"/>
    </edge>
    <edge id=":001_001_8" function="internal">
        <lane id=":001_001_8_0" index="0" speed="10.10" length="5.96" width="3.20" shape="462.00,477.20 463.37,471.80 463.60,471.48"/>
    </edge>
    <edge id=":001_001_36" function="internal">
        <lane id=":001_001_36_0" index="0" speed="11.18" length="26.08" width="3.20" shape="457.43,471.05 457.73,470.08 463.07,463.07 470.08,457.73 477.20,455.60"/>
    </edge>
    <edge id=":001_001_37" function="internal">
        <lane id=":001_001_37_0" index="0" speed="8.00" length="8.26" width="3.20" shape="457.20,471.60 456.60,470.60 453.85,468.95 450.00,468.40"/>
    </edge>
    <edge id=":001_001_38" function="internal">
        <lane id=":001_001_38_0" index="0" speed="11.07" length="16.62" width="3.20" shape="463.24,466.83 464.75,464.75 470.67,460.46 477.20,458.80"/>
    </edge>
    <edge id=":001_001_39" function="internal">
        <lane id=":001_001_39_0" index="0" speed="9.26" length="12.40" width="3.20" shape="460.40,470.53 459.00,468.20 455.25,465.95 450.00,465.20"/>
    </edge>
    <edge id=":001_001_40" function="internal">
        <lane id=":001_001_40_0" index="0" speed="10.10" length="17.25" width="3.20" shape="463.60,471.48 466.91,466.91 471.80,463.37 477.20,462.00"/>
    </edge>
    <edge id=":001_001_9" function="internal">
        <lane id=":001_001_9_0" index="0" speed="6.51" length="9.03" width="3.20" shape="477.20,471.60 474.75,471.95 473.00,473.00 471.95,474.75 471.60,477.20"/>
    </edge>
    <edge id=":001_001_10" function="internal">
        <lane id=":001_001_10_0" index="0" speed="11.18" length="27.20" width="3.20" shape="477.20,471.60 450.00,471.60"/>
    </edge>
    <edge id=":001_001_11" function="internal">
        <lane id=":001_001_11_0" index="0" speed="11.18" length="32.49" width="3.20" shape="477.20,471.60 470.08,469.48 463.07,464.13 457.73,457.13 455.60,450.00"/>
    </edge>
    <edge id=":001_001_12" function="internal">
        <lane id=":001_001_12_0" index="0" speed="8.00" length="14.19" width="3.20" shape="477.20,468.40 473.35,468.95 470.60,470.60 468.95,473.35 468.40,477.20"/>
    </edge>
    <edge id=":001_001_13" function="internal">
        <lane id=":001_001_13_0" index="0" speed="11.18" length="27.20" width="3.20" shape="477.20,468.40 450.00,468.40"/>
    </edge>
    <edge id=":001_001_14" function="internal">
        <lane id=":001_001_14_0" index="0" speed="11.07" length="28.10" width="3.20" shape="477.20,468.40 470.67,466.74 464.75,462.45 460.46,456.53 458.80,450.00"/>
    </edge>
    <edge id=":001_001_15" function="internal">
        <lane id=":001_001_15_0" index="0" speed="9.26" length="19.35" width="3.20" shape="477.20,465.20 471.95,465.95 468.20,468.20 465.95,471.95 465.20,477.20"/>
    </edge>
    <edge id=":001_001_16" function="internal">
        <lane id=":001_001_16_0" index="0" speed="11.18" length="27.20" width="3.20" shape="477.20,465.20 450.00,465.20"/>
    </edge>
    <edge id=":001_001_17" function="internal">
        <lane id=":001_001_17_0" index="0" speed="10.10" length="23.22" width="3.20" shape="477.20,465.20 471.80,463.83 466.91,460.29 463.37,455.40 462.00,450.00"/>
    </edge>
    <edge id=":001_001_18" function="internal">
        <lane id=":001_001_18_0" index="0" speed="6.51" length="9.03" width="3.20" shape="471.60,450.00 471.95,452.45 473.00,454.20 474.75,455.25 477.20,455.60"/>
    </edge>
    <edge id=":001_001_19" function="internal">
        <lane id=":001_001_19_0" index="0" speed="11.18" length="27.20" width="3.20" shape="471.60,450.00 471.60,477.20"/>
    </edge>
    <edge id=":001_001_20" function="internal">
        <lane id=":001_001_20_0" index="0" speed="11.18" length="6.41" width="3.20" shape="471.60,450.00 469.77,456.15"/>
    </edge>
    <edge id=":001_001_21" function="internal">
        <lane id=":001_001_21_0" index="0" speed="8.00" length="5.93" width="3.20" shape="468.40,450.00 468.95,453.85 470.00,455.60"/>
    </edge>
    <edge id=":001_001_22" function="internal">
        <lane id=":001_001_22_0" index="0" speed="11.18" length="27.20" width="3.20" shape="468.40,450.00 468.40,477.20"/>
    </edge>
    <edge id=":001_001_23" function="internal">
        <lane id=":001_001_23_0" index="0" speed="11.07" length="11.48" width="3.20" shape="468.40,450.00 466.74,456.53 463.96,460.37"/>
    </edge>
    <edge id=":001_001_24" function="internal">
        <lane id=":001_001_24_0" index="0" speed="9.26" length="6.96" width="3.20" shape="465.20,450.00 465.95,455.25 466.80,456.67"/>
    </edge>
    <edge id=":001_001_25" function="internal">
        <lane id=":001_001_25_0" index="0" speed="11.18" length="27.20" width="3.20" shape="465.20,450.00 465.20,477.20"/>
    </edge>
    <edge id=":001_001_26" function="internal">
        <lane id=":001_001_26_0" index="0" speed="10.10" length="5.96" width="3.20" shape="465.20,450.00 463.83,455.40 463.60,455.72"/>
    </edge>
    <edge id=":001_001_41" function="internal">
        <lane id=":001_001_41_0" index="0" speed="11.18" length="26.08" width="3.20" shape="469.77,456.15 469.48,457.13 464.13,464.13 457.13,469.48 450.00,471.60"/>
    </edge>
    <edge id=":001_001_42" function="internal">
        <lane id=":001_001_42_0" index="0" speed="8.00" length="8.26" width="3.20" shape="470.00,455.60 470.60,456.60 473.35,458.25 477.20,458.80"/>
    </edge>
    <edge id=":001_001_43" function="internal">
        <lane id=":001_001_43_0" index="0" speed="11.07" length="16.62" width="3.20" shape="463.96,460.37 462.45,462.45 456.53,466.74 450.00,468.40"/>
    </edge>
    <edge id=":001_001_44" function="internal">
        <lane id=":001_001_44_0" index="0" speed="9.26" length="12.40" width="3.20" shape="466.80,456.67 468.20,459.00 471.95,461.25 477.20,462.00"/>
    </edge>
    <edge id=":001_001_45" function="internal">
        <lane id=":001_001_45_0" index="0" speed="10.10" length="17.25" width="3.20" shape="463.60,455.72 460.29,460.29 455.40,463.83 450.00,465.20"/>
    </edge>
    <edge id=":001_001_27" function="internal">
        <lane id=":001_001_27_0" index="0" speed="6.51" length="9.03" width="3.20" shape="450.00,455.60 452.45,455.25 454.20,454.20 455.25,452.45 455.60,450.00"/>
    </edge>
    <edge id=":001_001_28" function="internal">
        <lane id=":001_001_28_0" index="0" speed="11.18" length="27.20" width="3.20" shape="450.00,455.60 477.20,455.60"/>
    </edge>
    <edge id=":001_001_29" function="internal">
        <lane id=":001_001_29_0" index="0" speed="11.18" length="32.49" width="3.20" shape="450.00,455.60 457.13,457.73 464.13,463.07 469.48,470.08 471.60,477.20"/>
    </edge>
    <edge id=":001_001_30" function="internal">
        <lane id=":001_001_30_0" index="0" speed="8.00" length="14.19" width="3.20" shape="450.00,458.80 453.85,458.25 456.60,456.60 458.25,453.85 458.80,450.00"/>
    </edge>
    <edge id=":001_001_31" function="internal">
        <lane id=":001_001_31_0" index="0" speed="11.18" length="27.20" width="3.20" shape="450.00,458.80 477.20,458.80"/>
    </edge>
    <edge id=":001_001_32" function="internal">
        <lane id=":001_001_32_0" index="0" speed="11.07" length="28.10" width="3.20" shape="450.00,458.80 456.53,460.46 462.45,464.75 466.74,470.67 468.40,477.20"/>
    </edge>
    <edge id=":001_001_33" function="internal">
        <lane id=":001_001_33_0" index="0" speed="9.26" length="19.35" width="3.20" shape="450.00,462.00 455.25,461.25 459.00,459.00 461.25,455.25 462.00,450.00"/>
    </edge>
    <edge id=":001_001_34" function="internal">
        <lane id=":001_001_34_0" index="0" speed="11.18" length="27.20" width="3.20" shape="450.00,462.00 477.20,462.00"/>
    </edge>
    <edge id=":001_001_35" function="internal">
        <lane id=":001_001_35_0" index="0" speed="10.10" length="23.22" width="3.20" shape="450.00,462.00 455.40,463.37 460.29,466.91 463.83,471.80 465.20,477.20"/>
    </edge>
    <edge id=":001_002_0" function="internal">
        <lane id=":001_002_0_0" index="0" speed="6.51" length="9.03" width="3.20" shape="455.60,704.40 455.25,701.95 454.20,700.20 452.45,699.15 450.00,698.80"/>
    </edge>
    <edge id=":001_002_1" function="internal">
        <lane id=":001_002_1_0" index="0" speed="11.18" length="27.20" width="3.20" shape="455.60,704.40 455.60,677.20"/>
    </edge>
    <edge id=":001_002_2" function="internal">
        <lane id=":001_002_2_0" index="0" speed="11.18" length="6.41" width="3.20" shape="455.60,704.40 457.43,698.25"/>
    </edge>
    <edge id=":001_002_3" function="internal">
        <lane id=":001_002_3_0" index="0" speed="8.00" length="5.93" width="3.20" shape="458.80,704.40 458.25,700.55 457.20,698.80"/>
    </edge>
    <edge id=":001_002_4" function="internal">
        <lane id=":001_002_4_0" index="0" speed="11.18" length="27.20" width="3.20" shape="458.80,704.40 458.80,677.20"/>
    </edge>
    <edge id=":001_002_5" function="internal">
        <lane id=":001_002_5_0" index="0" speed="11.07" length="11.48" width="3.20" shape="458.80,704.40 460.46,697.87 463.24,694.03"/>
    </edge>
    <edge id=":001_002_6" function="internal">
        <lane id=":001_002_6_0" index="0" speed="9.26" length="6.96" width="3.20" shape="462.00,704.40 461.25,699.15 460.40,697.73"/>
    </edge>
    <edge id=":001_002_7" function="internal">
        <lane id=":001_002_7_0" index="0" speed="11.18" length="27.20" width="3.20" shape="462.00,704.40 462.00,677.20"/>
    </edge>
    <edge id=":001_002_8" function="internal">
        <lane id=":001_002_8_0" index="0" speed="10.10" length="5.96" width="3.20" shape="462.00,704.40 463.37,699.00 463.60,698.68"/>
    </edge>
    <edge id=":001_002_36" function="internal">
        <lane id=":001_002_36_0" index="0" speed="11.18" length="26.08" width="3.20" shape="457.43,698.25 457.73,697.27 463.07,690.27 470.08,684.92 477.20,682.80"/>
    </edge>
    <edge id=":001_002_37" function="internal">
        <lane id=":001_002_37_0" index="0" speed="8.00" length="8.26" width="3.20" shape="457.20,698.80 456.60,697.80 453.85,696.15 450.00,695.60"/>
    </edge>
    <edge id=":001_002_38" function="internal">
        <lane id=":001_002_38_0" index="0" speed="11.07" length="16.62" width="3.20" shape="463.24,694.03 464.75,691.95 470.67,687.66 477.20,686.00"/>
    </edge>
    <edge id=":001_002_39" function="internal">
        <lane id=":001_002_39_0" index="0" speed="9.26" length="12.40" width="3.20" shape="460.40,697.73 459.00,695.40 455.25,693.15 450.00,692.40"/>
    </edge>
    <edge id=":001_002_40" function="internal">
        <lane id=":001_002_40_0" index="0" speed="10.10" length="17.25" width="3.20" shape="463.60,698.68 466.91,694.11 471.80,690.57 477.20,689.20"/>
    </edge>
    <edge id=":001_002_9" function="internal">
        <lane id=":001_002_9_0" index="0" speed="6.51" length="9.03" width="3.20" shape="477.20,698.80 474.75,699.15 473.00,700.20 471.95,701.95 471.60,704.40"/>
    </edge>
    <edge id=":001_002_10" function="internal">
        <lane id=":001_002_10_0" index="0" speed="11.18" length="27.20" width="3.20" shape="477.20,698.80 450.00,698.80"/>
    </edge>
    <edge id=":001_002_11" function="internal">
        <lane id=":001_002_11_0" index="0" speed="11.18" length="32.49" width="3.20" shape="477.20,698.80 470.08,696.67 463.07,691.33 457.73,684.32 455.60,677.20"/>
    </edge>
    <edge id=":001_002_12" function="internal">
        <lane id=":001_002_12_0" index="0" speed="8.00" length="14.19" width="3.20" shape="477.20,695.60 473.35,696.15 470.60,697.80 468.95,700.55 468.40,704.40"/>
    </edge>
    <edge id=":001_002_13" function="internal">
        <lane id=":001_002_13_0" index="0" speed="11.18" length="27.20" width="3.20" shape="477.20,695.60 450.00,695.60"/>
    </edge>
    <edge id=":001_002_14" function="internal">
        <lane id=":001_002_14_0" index="0" speed="11.07" length="28.10" width="3.20" shape="477.20,695.60 470.67,693.94 464.75,689.65 460.46,683.73 458.80,677.20"/>
    </edge>
    <edge id=":001_002_15" function="internal">
        <lane id=":001_002_15_0" index="0" speed="9.26" length="19.35" width="3.20" shape="477.20,692.40 471.95,693.15 468.20,695.40 465.95,699.15 465.20,704.40"/>
    </edge>
    <edge id=":001_002_16" function="internal">
        <lane id=":001_002_16_0" index="0" speed="11.18" length="27.20" width="3.20" shape="477.20,692.40 450.00,692.40"/>
    </edge>
    <edge id=":001_002_17" function="internal">
        <lane id=":001_002_17_0" index="0" speed="10.10" length="23.22" width="3.20" shape="477.20,692.40 471.80,691.03 466.91,687.49 463.37,682.60 462.00,677.20"/>
    </edge>
    <edge id=":001_002_18" function="internal">
        <lane id=":001_002_18_0" index="0" speed="6.51" length="9.03" width="3.20" shape="471.60,677.20 471.95,679.65 473.00,681.40 474.75,682.45 477.20,682.80"/>
    </edge>
    <edge id=":001_002_19" function="internal">
        <lane id=":001_002_19_0" index="0" speed="11.18" length="27.20" width="3.20" shape="471.60,677.20 471.60,704.40"/>
    </edge>
    <edge id=":001_002_20" function="internal">
        <lane id=":001_002_20_0" index="0" speed="11.18" length="6.41" width="3.20" shape="471.60,677.20 469.77,683.35"/>
    </edge>
    <edge id=":001_002_21" function="internal">
        <lane id=":001_002_21_0" index="0" speed="8.00" length="5.93" width="3.20" shape="468.40,677.20 468.95,681.05 470.00,682.80"/>
    </edge>
    <edge id=":001_002_22" function="internal">
        <lane id=":001_002_22_0" index="0" speed="11.18" length="27.20" width="3.20" shape="468.40,677.20 468.40,704.40"/>
    </edge>
    <edge id=":001_002_23" function="internal">
        <lane id=":001_002_23_0" index="0" speed="11.07" length="11.48" width="3.20" shape="468.40,677.20 466.74,683.73 463.96,687.57"/>
    </edge>
    <edge id=":001_002_24" function="internal">
        <lane id=":001_002_24_0" index="0" speed="9.26" length="6.96" width="3.20" shape="465.20,677.20 465.95,682.45 466.80,683.87"/>
    </edge>
    <edge id=":001_002_25" function="internal">
        <lane id=":001_002_25_0" index="0" speed="11.18" length="27.20" width="3.20" shape="465.20,677.20 465.20,704.40"/>
    </edge>
    <edge id=":001_002_26" function="internal">
        <lane id=":001_002_26_0" index="0" speed="10.10" length="5.96" width="3.20" shape="465.20,677.20 463.83,682.60 463.60,682.92"/>
    </edge>
    <edge id=":001_002_41" function="internal">
        <lane id=":001_002_41_0" index="0" speed="11.18" length="26.08" width="3.20" shape="469.77,683.35 469.48,684.32 464.13,691.33 457.13,696.67 450.00,698.80"/>
    </edge>
    <edge id=":001_002_42" function="internal">
        <lane id=":001_002_42_0" index="0" speed="8.00" length="8.26" width="3.20" shape="470.00,682.80 470.60,683.80 473.35,685.45 477.20,686.00"/>
    </edge>
    <edge id=":001_002_43" function="internal">
        <lane id=":001_002_43_0" index="0" speed="11.07" length="16.62" width="3.20" shape="463.96,687.57 462.45,689.65 456.53,693.94 450.00,695.60"/>
    </edge>
    <edge id=":001_002_44" function="internal">
        <lane id=":001_002_44_0" index="0" speed="9.26" length="12.40" width="3.20" shape="466.80,683.87 468.20,686.20 471.95,688.45 477.20,689.20"/>
    </edge>
    <edge id=":001_002_45" function="internal">
        <lane id=":001_002_45_0" index="0" speed="10.10" length="17.25" width="3.20" shape="463.60,682.92 460.29,687.49 455.40,691.03 450.00,692.40"/>
    </edge>
    <edge id=":001_002_27" function="internal">
        <lane id=":001_002_27_0" index="0" speed="6.51" length="9.03" width="3.20" shape="450.00,682.80 452.45,682.45 454.20,681.40 455.25,679.65 455.60,677.20"/>
    </edge>
    <edge id=":001_002_28" function="internal">
        <lane id=":001_002_28_0" index="0" speed="11.18" length="27.20" width="3.20" shape="450.00,682.80 477.20,682.80"/>
    </edge>
    <edge id=":001_002_29" function="internal">
        <lane id=":001_002_29_0" index="0" speed="11.18" length="32.49" width="3.20" shape="450.00,682.80 457.13,684.92 464.13,690.27 469.48,697.27 471.60,704.40"/>
    </edge>
    <edge id=":001_002_30" function="internal">
        <lane id=":001_002_30_0" index="0" speed="8.00" length="14.19" width="3.20" shape="450.00,686.00 453.85,685.45 456.60,683.80 458.25,681.05 458.80,677.20"/>
    </edge>
    <edge id=":001_002_31" function="internal">
        <lane id=":001_002_31_0" index="0" speed="11.18" length="27.20" width="3.20" shape="450.00,686.00 477.20,686.00"/>
    </edge>
    <edge id=":001_002_32" function="internal">
        <lane id=":001_002_32_0" index="0" speed="11.07" length="28.10" width="3.20" shape="450.00,686.00 456.53,687.66 462.45,691.95 466.74,697.87 468.40,704.40"/>
    </edge>
    <edge id=":001_002_33" function="internal">
        <lane id=":001_002_33_0" index="0" speed="9.26" length="19.35" width="3.20" shape="450.00,689.20 455.25,688.45 459.00,686.20 461.25,682.45 462.00,677.20"/>
    </edge>
    <edge id=":001_002_34" function="internal">
        <lane id=":001_002_34_0" index="0" speed="11.18" length="27.20" width="3.20" shape="450.00,689.20 477.20,689.20"/>
    </edge>
    <edge id=":001_002_35" function="internal">
        <lane id=":001_002_35_0" index="0" speed="10.10" length="23.22" width="3.20" shape="450.00,689.20 455.40,690.57 460.29,694.11 463.83,699.00 465.20,704.40"/>
    </edge>
    <edge id=":001_003_0" function="internal">
        <lane id=":001_003_0_0" index="0" speed="6.51" length="9.03" width="3.20" shape="455.60,931.60 455.25,929.15 454.20,927.40 452.45,926.35 450.00,926.00"/>
    </edge>
    <edge id=":001_003_1" function="internal">
        <lane id=":001_003_1_0" index="0" speed="11.18" length="27.20" width="3.20" shape="455.60,931.60 455.60,904.40"/>
    </edge>
    <edge id=":001_003_2" function="internal">
        <lane id=":001_003_2_0" index="0" speed="11.18" length="6.41" width="3.20" shape="455.60,931.60 457.43,925.45"/>
    </edge>
    <edge id=":001_003_3" function="internal">
        <lane id=":001_003_3_0" index="0" speed="8.00" length="5.93" width="3.20" shape="458.80,931.60 458.25,927.75 457.20,926.00"/>
    </edge>
    <edge id=":001_003_4" function="internal">
        <lane id=":001_003_4_0" index="0" speed="11.18" length="27.20" width="3.20" shape="458.80,931.60 458.80,904.40"/>
    </edge>
    <edge id=":001_003_5" function="internal">
        <lane id=":001_003_5_0" index="0" speed="11.07" length="11.48" width="3.20" shape="458.80,931.60 460.46,925.07 463.24,921.23"/>
    </edge>
    <edge id=":001_003_6" function="internal">
        <lane id=":001_003_6_0" index="0" speed="9.26" length="6.96" width="3.20" shape="462.00,931.60 461.25,926.35 460.40,924.93"/>
    </edge>
    <edge id=":001_003_7" function="internal">
        <lane id=":001_003_7_0" index="0" speed="11.18" length="27.20" width="3.20" shape="462.00,931.60 462.00,904.40"/>
    </edge>
    <edge id=":001_003_8" function="internal">
        <lane id=":001_003_8_0" index="0" speed="10.10" length="5.96" width="3.20" shape="462.00,931.60 463.37,926.20 463.60,925.88"/>
    </edge>
    <edge id=":001_003_36" function="internal">
        <lane id=":001_003_36_0" index="0" speed="11.18" length="26.08" width="3.20" shape="457.43,925.45 457.73,924.48 463.07,917.47 470.08,912.13 477.20,910.00"/>
    </edge>
    <edge id=":001_003_37" function="internal">
        <lane id=":001_003_37_0" index="0" speed="8.00" length="8.26" width="3.20" shape="457.20,926.00 456.60,925.00 453.85,923.35 450.00,922.80"/>
    </edge>
    <edge id=":001_003_38" function="internal">
        <lane id=":001_003_38_0" index="0" speed="11.07" length="16.62" width="3.20" shape="463.24,921.23 464.75,919.15 470.67,914.86 477.20,913.20"/>
    </edge>
    <edge id=":001_003_39" function="internal">
        <lane id=":001_003_39_0" index="0" speed="9.26" length="12.40" width="3.20" shape="460.40,924.93 459.00,922.60 455.25,920.35 450.00,919.60"/>
    </edge>
    <edge id=":001_003_40" function="internal">
        <lane id=":001_003_40_0" index="0" speed="10.10" length="17.25" width="3.20" shape="463.60,925.88 466.91,921.31 471.80,917.77 477.20,916.40"/>
    </edge>
    <edge id=":001_003_9" function="internal">
        <lane id=":001_003_9_0" index="0" speed="6.51" length="9.03" width="3.20" shape="477.20,926.00 474.75,926.35 473.00,927.40 471.95,929.15 471.60,931.60"/>
    </edge>
    <edge id=":001_003_10" function="internal">
        <lane id=":001_003_10_0" index="0" speed="11.18" length="27.20" width="3.20" shape="477.20,926.00 450.00,926.00"/>
    </edge>
    <edge id=":001_003_11" function="internal">
        <lane id=":001_003_11_0" index="0" speed="11.18" length="32.49" width="3.20" shape="477.20,926.00 470.08,923.88 463.07,918.53 457.73,911.53 455.60,904.40"/>
    </edge>
    <edge id=":001_003_12" function="internal">
        <lane id=":001_003_12_0" index="0" speed="8.00" length="14.19" width="3.20" shape="477.20,922.80 473.35,923.35 470.60,925.00 468.95,927.75 468.40,931.60"/>
    </edge>
    <edge id=":001_003_13" function="internal">
        <lane id=":001_003_13_0" index="0" speed="11.18" length="27.20" width="3.20" shape="477.20,922.80 450.00,922.80"/>
    </edge>
    <edge id=":001_003_14" function="internal">
        <lane id=":001_003_14_0" index="0" speed="11.07" length="28.10" width="3.20" shape="477.20,922.80 470.67,921.14 464.75,916.85 460.46,910.93 458.80,904.40"/>
    </edge>
    <edge id=":001_003_15" function="internal">
        <lane id=":001_003_15_0" index="0" speed="9.26" length="19.35" width="3.20" shape="477.20,919.60 471.95,920.35 468.20,922.60 465.95,926.35 465.20,931.60"/>
    </edge>
    <edge id=":001_003_16" function="internal">
        <lane id=":001_003_16_0" index="0" speed="11.18" length="27.20" width="3.20" shape="477.20,919.60 450.00,919.60"/>
    </edge>
    <edge id=":001_003_17" function="internal">
        <lane id=":001_003_17_0" index="0" speed="10.10" length="23.22" width="3.20" shape="477.20,919.60 471.80,918.23 466.91,914.69 463.37,909.80 462.00,904.40"/>
    </edge>
    <edge id=":001_003_18" function="internal">
        <lane id=":001_003_18_0" index="0" speed="6.51" length="9.03" width="3.20" shape="471.60,904.40 471.95,906.85 473.00,908.60 474.75,909.65 477.20,910.00"/>
    </edge>
    <edge id=":001_003_19" function="internal">
        <lane id=":001_003_19_0" index="0" speed="11.18" length="27.20" width="3.20" shape="471.60,904.40 471.60,931.60"/>
    </edge>
    <edge id=":001_003_20" function="internal">
        <lane id=":001_003_20_0" index="0" speed="11.18" length="6.41" width="3.20" shape="471.60,904.40 469.77,910.55"/>
    </edge>
    <edge id=":001_003_21" function="internal">
        <lane id=":001_003_21_0" index="0" speed="8.00" length="5.93" width="3.20" shape="468.40,904.40 468.95,908.25 470.00,910.00"/>
    </edge>
    <edge id=":001_003_22" function="internal">
        <lane id=":001_003_22_0" index="0" speed="11.18" length="27.20" width="3.20" shape="468.40,904.40 468.40,931.60"/>
    </edge>
    <edge id=":001_003_23" function="internal">
        <lane id=":001_003_23_0" index="0" speed="11.07" length="11.48" width="3.20" shape="468.40,904.40 466.74,910.93 463.96,914.77"/>
    </edge>
    <edge id=":001_003_24" function="internal">
        <lane id=":001_003_24_0" index="0" speed="9.26" length="6.96" width="3.20" shape="465.20,904.40 465.95,909.65 466.80,911.07"/>
    </edge>
    <edge id=":001_003_25" function="internal">
        <lane id=":001_003_25_0" index="0" speed="11.18" length="27.20" width="3.20" shape="465.20,904.40 465.20,931.60"/>
    </edge>
    <edge id=":001_003_26" function="internal">
        <lane id=":001_003_26_0" index="0" speed="10.10" length="5.96" width="3.20" shape="465.20,904.40 463.83,909.80 463.60,910.12"/>
    </edge>
    <edge id=":001_003_41" function="internal">
        <lane id=":001_003_41_0" index="0" speed="11.18" length="26.08" width="3.20" shape="469.77,910.55 469.48,911.52 464.13,918.53 457.13,923.88 450.00,926.00"/>
    </edge>
    <edge id=":001_003_42" function="internal">
        <lane id=":001_003_42_0" index="0" speed="8.00" length="8.26" width="3.20" shape="470.00,910.00 470.60,911.00 473.35,912.65 477.20,913.20"/>
    </edge>
    <edge id=":001_003_43" function="internal">
        <lane id=":001_003_43_0" index="0" speed="11.07" length="16.62" width="3.20" shape="463.96,914.77 462.45,916.85 456.53,921.14 450.00,922.80"/>
    </edge>
    <edge id=":001_003_44" function="internal">
        <lane id=":001_003_44_0" index="0" speed="9.26" length="12.40" width="3.20" shape="466.80,911.07 468.20,913.40 471.95,915.65 477.20,916.40"/>
    </edge>
    <edge id=":001_003_45" function="internal">
        <lane id=":001_003_45_0" index="0" speed="10.10" length="17.25" width="3.20" shape="463.60,910.12 460.29,914.69 455.40,918.23 450.00,919.60"/>
    </edge>
    <edge id=":001_003_27" function="internal">
        <lane id=":001_003_27_0" index="0" speed="6.51" length="9.03" width="3.20" shape="450.00,910.00 452.45,909.65 454.20,908.60 455.25,906.85 455.60,904.40"/>
    </edge>
    <edge id=":001_003_28" function="internal">
        <lane id=":001_003_28_0" index="0" speed="11.18" length="27.20" width="3.20" shape="450.00,910.00 477.20,910.00"/>
    </edge>
    <edge id=":001_003_29" function="internal">
        <lane id=":001_003_29_0" index="0" speed="11.18" length="32.49" width="3.20" shape="450.00,910.00 457.13,912.13 464.13,917.47 469.48,924.47 471.60,931.60"/>
    </edge>
    <edge id=":001_003_30" function="internal">
        <lane id=":001_003_30_0" index="0" speed="8.00" length="14.19" width="3.20" shape="450.00,913.20 453.85,912.65 456.60,911.00 458.25,908.25 458.80,904.40"/>
    </edge>
    <edge id=":001_003_31" function="internal">
        <lane id=":001_003_31_0" index="0" speed="11.18" length="27.20" width="3.20" shape="450.00,913.20 477.20,913.20"/>
    </edge>
    <edge id=":001_003_32" function="internal">
        <lane id=":001_003_32_0" index="0" speed="11.07" length="28.10" width="3.20" shape="450.00,913.20 456.53,914.86 462.45,919.15 466.74,925.07 468.40,931.60"/>
    </edge>
    <edge id=":001_003_33" function="internal">
        <lane id=":001_003_33_0" index="0" speed="9.26" length="19.35" width="3.20" shape="450.00,916.40 455.25,915.65 459.00,913.40 461.25,909.65 462.00,904.40"/>
    </edge>
    <edge id=":001_003_34" function="internal">
        <lane id=":001_003_34_0" index="0" speed="11.18" length="27.20" width="3.20" shape="450.00,916.40 477.20,916.40"/>
    </edge>
    <edge id=":001_003_35" function="internal">
        <lane id=":001_003_35_0" index="0" speed="10.10" length="23.22" width="3.20" shape="450.00,916.40 455.40,917.77 460.29,921.31 463.83,926.20 465.20,931.60"/>
    </edge>
    <edge id=":001_004_0" function="internal">
        <lane id=":001_004_0_0" index="0" speed="6.51" length="9.03" width="3.20" shape="455.60,1158.80 455.25,1156.35 454.20,1154.60 452.45,1153.55 450.00,1153.20"/>
    </edge>
    <edge id=":001_004_1" function="internal">
        <lane id=":001_004_1_0" index="0" speed="11.18" length="27.20" width="3.20" shape="455.60,1158.80 455.60,1131.60"/>
    </edge>
    <edge id=":001_004_2" function="internal">
        <lane id=":001_004_2_0" index="0" speed="11.18" length="6.41" width="3.20" shape="455.60,1158.80 457.43,1152.65"/>
    </edge>
    <edge id=":001_004_3" function="internal">
        <lane id=":001_004_3_0" index="0" speed="8.00" length="5.93" width="3.20" shape="458.80,1158.80 458.25,1154.95 457.20,1153.20"/>
    </edge>
    <edge id=":001_004_4" function="internal">