<edges>
<edge id="001_001_1" from="000_001" to="001_001" priority="3" numLanes="3" speed= "11.18" width="3.20"/>
<edge id="001_001_2" from="001_002" to="001_001" priority="3" numLanes="3" speed= "11.18" width="3.20"/>
<edge id="001_001_3" from="002_001" to="001_001" priority="3" numLanes="3" speed= "11.18" width="3.20"/>
<edge id="001_001_4" from="001_000" to="001_001" priority="3" numLanes="3" speed= "11.18" width="3.20"/>
<edge id="002_001_1" from="001_001" to="002_001" priority="3" numLanes="3" speed= "11.18" width="3.20"/>
<edge id="002_001_2" from="002_002" to="002_001" priority="3" numLanes="3" speed= "11.18" width="3.20"/>
<edge id="002_001_3" from="003_001" to="002_001" priority="3" numLanes="3" speed= "11.18" width="3.20"/>
<edge id="002_001_4" from="002_000" to="002_001" priority="3" numLanes="3" speed= "11.18" width="3.20"/>
<edge id="003_001_1" from="002_001" to="003_001" priority="3" numLanes="3" speed= "11.18" width="3.20"/>
<edge id="003_001_2" from="003_002" to="003_001" priority="3" numLanes="3" speed= "11.18" width="3.20"/>
<edge id="003_001_3" from="004_001" to="003_001" priority="3" numLanes="3" speed= "11.18" width="3.20"/>
<edge id="003_001_4" from="003_000" to="003_001" priority="3" numLanes="3" speed= "11.18" width="3.20"/>
<edge id="004_001_1" from="003_001" to="004_001" priority="3" numLanes="3" speed= "11.18" width="3.20"/>
<edge id="004_001_2" from="004_002" to="004_001" priority="3" numLanes="3" speed= "11.18" width="3.20"/>
<edge id="004_001_3" from="005_001" to="004_001" priority="3" numLanes="3" speed= "11.18" width="3.20"/>
<edge id="004_001_4" from="004_000" to="004_001" priority="3" numLanes="3" speed= "11.18" width="3.20"/>
<edge id="005_001_1" from="004_001" to="005_001" priority="3" numLanes="3" speed= "11.18" width="3.20"/>
<edge id="005_001_2" from="005_002" to="005_001" priority="3" numLanes="3" speed= "11.18" width="3.20"/>
<edge id="005_001_3" from="006_001" to="005_001" priority="3" numLanes="3" speed= "11.18" width="3.20"/>
<edge id="005_001_4" from="005_000" to="005_001" priority="3" numLanes="3" speed= "11.18" width="3.20"/>
<edge id="006_001_1" from="005_001" to="006_001" priority="3" numLanes="3" speed= "11.18" width="3.20"/>
<edge id="006_001_2" from="006_002" to="006_001" priority="3" numLanes="3" speed= "11.18" width="3.20"/>
<edge id="006_001_3" from="007_001" to="006_001" priority="3" numLanes="3" speed= "11.18" width="3.20"/>
<edge id="006_001_4" from="006_000" to="006_001" priority="3" numLanes="3" speed= "11.18" width="3.20"/>
<edge id="007_001_1" from="006_001" to="007_001" priority="3" numLanes="3" speed= "11.18" width="3.20"/>
<edge id="007_001_2" from="007_002" to="007_001" priority="3" numLanes="3" speed= "11.18" width="3.20"/>
<edge id="007_001_3" from="008_001" to="007_001" priority="3" numLanes="3" speed= "11.18" width="3.20"/>
<edge id="007_001_4" from="007_000" to="007_001" priority="3" numLanes="3" speed= "11.18" width="3.20"/>
<edge id="008_001_1" from="007_001" to="008_001" priority="3" numLanes="3" speed= "11.18" width="3.20"/>
<edge id="008_001_2" from="008_002" to="008_001" priority="3" numLanes="3" speed= "11.18" width="3.20"/>
<edge id="008_001_3" from="009_001" to="008_001" priority="3" numLanes="3" speed= "11.18" width="3.20"/>
<edge id="008_001_4" from="008_000" to="008_001" priority="3" numLanes="3" speed= "11.18" width="3.20"/>
<edge id="009_001_1" from="008_001" to="009_001" priority="3" numLanes="3" speed= "11.18" width="3.20"/>
<edge id="009_001_2" from="009_002" to="009_001" priority="3" numLanes="3" speed= "11.18" width="3.20"/>
<edge id="009_001_3" from="010_001" to="009_001" priority="3" numLanes="3" speed= "11.18" width="3.20"/>
<edge id="009_001_4" from="009_000" to="009_001" priority="3" numLanes="3" speed= "11.18" width="3.20"/>
<edge id="010_001_1" from="009_001" to="010_001" priority="3" numLanes="3" speed= "11.18" width="3.20"/>
<edge id="010_001_2" from="010_002" to="010_001" priority="3" numLanes="3" speed= "11.18" width="3.20"/>
<edge id="010_001_3" from="011_001" to="010_001" priority="3" numLanes="3" speed= "11.18" width="3.20"/>
<edge id="010_001_4" from="010_000" to="010_001" priority="3" numLanes="3" speed= "11.18" width="3.20"/>
<edge id="011_001_1" from="010_001" to="011_001" priority="3" numLanes="3" speed= "11.18" width="3.20"/>
<edge id="011_001_2" from="011_002" to="011_001" priority="3" numLanes="3" speed= "11.18" width="3.20"/>
<edge id="011_001_3" from="012_001" to="011_001" priority="3" numLanes="3" speed= "11.18" width="3.20"/>
<edge id="011_001_4" from="011_000" to="011_001" priority="3" numLanes="3" speed= "11.18" width="3.20"/>
<edge id="012_001_1" from="011_001" to="012_001" priority="3" numLanes="3" speed= "11.18" width="3.20"/>
<edge id="012_001_2" from="012_002" to="012_001" priority="3" numLanes="3" speed= "11.18" width="3.20"/>
<edge id="012_001_3" from="013_001" to="012_001" priority="3" numLanes="3" speed= "11.18" width="3.20"/>
<edge id="012_001_4" from="012_000" to="012_001" priority="3" numLanes="3" speed= "11.18" width="3.20"/>
<edge id="013_001_1" from="012_001" to="013_001" priority="3" numLanes="3" speed= "11.18" width="3.20"/>
<edge id="013_001_2" from="013_002" to="013_001" priority="3" numLanes="3" speed= "11.18" width="3.20"/>
<edge id="013_001_3" from="014_001" to="013_001" priority="3" numLanes="3" speed= "11.18" width="3.20"/>
<edge id="013_001_4" from="013_000" to="013_001" priority="3" numLanes="3" speed= "11.18" width="3.20"/>
<edge id="014_001_1" from="013_001" to="014_001" priority="3" numLanes="3" speed= "11.18" width="3.20"/>
<edge id="014_001_2" from="014_002" to="014_001" priority="3" numLanes="3" speed= "11.18" width="3.20"/>
<edge id="014_001_3" from="015_001" to="014_001" priority="3" numLanes="3" speed= "11.18" width="3.20"/>
<edge id="014_001_4" from="014_000" to="014_001" priority="3" numLanes="3" speed= "11.18" width="3.20"/>
<edge id="015_001_1" from="014_001" to="015_001" priority="3" numLanes="3" speed= "11.18" width="3.20"/>
<edge id="015_001_2" from="015_002" to="015_001" priority="3" numLanes="3" speed= "11.18" width="3.20"/>
<edge id="015_001_3" from="016_001" to="015_001" priority="3" numLanes="3" speed= "11.18" width="3.20"/>
<edge id="015_001_4" from="015_000" to="015_001" priority="3" numLanes="3" speed= "11.18" width="3.20"/>
<edge id="016_001_1" from="015_001" to="016_001" priority="3" numLanes="3" speed= "11.18" width="3.20"/>
<edge id="016_001_2" from="016_002" to="016_001" priority="3" numLanes="3" speed= "11.18" width="3.20"/>
<edge id="016_001_3" from="017_001" to="016_001" priority="3" numLanes="3" speed= "11.18" width="3.20"/>
<edge id="016_001_4" from="016_000" to="016_001" priority="3" numLanes="3" speed= "11.18" width="3.20"/>
<edge id="017_001_1" from="016_001" to="017_001" priority="3" numLanes="3" speed= "11.18" width="3.20"/>
<edge id="017_001_2" from="017_002" to="017_001" priority="3" numLanes="3" speed= "11.18" width="3.20"/>
<edge id="017_001_3" from="018_001" to="017_001" priority="3" numLanes="3" speed= "11.18" width="3.20"/>
<edge id="017_001_4" from="017_000" to="017_001" priority="3" numLanes="3" speed= "11.18" width="3.20"/>
<edge id="018_001_1" from="017_001" to="018_001" priority="3" numLanes="3" speed= "11.18" width="3.20"/>
<edge id="018_001_2" from="018_002" to="018_001" priority="3" numLanes="3" speed= "11.18" width="3.20"/>
<edge id="018_001_3" from="019_001" to="018_001" priority="3" numLanes="3" speed= "11.18" width="3.20"/>
<edge id="018_001_4" from="018_000" to="018_001" priority="3" numLanes="3" speed= "11.18" width="3.20"/>
<edge id="019_001_1" from="018_001" to="019_001" priority="3" numLanes="3" speed= "11.18" width="3.20"/>
<edge id="019_001_2" from="019_002" to="019_001" priority="3" numLanes="3" speed= "11.18" width="3.20"/>
<edge id="019_001_3" from="020_001" to="019_001" priority="3" numLanes="3" speed= "11.18" width="3.20"/>
<edge id="019_001_4" from="019_000" to="019_001" priority="3" numLanes="3" speed= "11.18" width="3.20"/>
<edge id="001_002_1" from="000_002" to="001_002" priority="3" numLanes="3" speed= "11.18" width="3.20"/>
<edge id="001_002_2" from="001_003" to="001_002" priority="3" numLanes="3" speed= "11.18" width="3.20"/>
<edge id="001_002_3" from="002_002" to="001_002" priority="3" numLanes="3" speed= "11.18" width="3.20"/>
<edge id="001_002_4" from="001_001" to="001_002" priority="3" numLanes="3" speed= "11.18" width="3.20"/>
<edge id="002_002_1" from="001_002" to="002_002" priority="3" numLanes="3" speed= "11.18" width="3.20"/>
<edge id="002_002_2" from="002_003" to="002_002" priority="3" numLanes="3" speed= "11.18" width="3.20"/>
<edge id="002_002_3" from="003_002" to="002_002" priority="3" numLanes="3" speed= "11.18" width="3.20"/>
<edge id="002_002_4" from="002_001" to="002_002" priority="3" numLanes="3" speed= "11.18" width="3.20"/>
<edge id="003_002_1" from="002_002" to="003_002" priority="3" numLanes="3" speed= "11.18" width="3.20"/>
<edge id="003_002_2" from="003_003" to="003_002" priority="3" numLanes="3" speed= "11.18" width="3.20"/>
<edge id="003_002_3" from="004_002" to="003_002" priority="3" numLanes="3" speed= "11.18" width="3.20"/>
<edge id="003_002_4" from="003_001" to="003_002" priority="3" numLanes="3" speed= "11.18" width="3.20"/>
<edge id="004_002_1" from="003_002" to="004_002" priority="3" numLanes="3" speed= "11.18" width="3.20"/>
<edge id="004_002_2" from="004_003" to="004_002" priority="3" numLanes="3" speed= "11.18" width="3.20"/>
<edge id="004_002_3" from="005_002" to="004_002" priority="3" numLanes="3" speed= "11.18" width="3.20"/>
<edge id="004_002_4" from="004_001" to="004_002" priority="3" numLanes="3" speed= "11.18" width="3.20"/>
<edge id="005_002_1" from="004_002" to="005_002" priority="3" numLanes="3" speed= "11.18" width="3.20"/>
<edge id="005_002_2" from="005_003" to="005_002" priority="3" numLanes="3" speed= "11.18" width="3.20"/>
<edge id="005_002_3" from="006_002" to="005_002" priority="3" numLanes="3" speed= "11.18" width="3.20"/>
<edge id="005_002_4" from="005_001" to="005_002" priority="3" numLanes="3" speed= "11.18" width="3.20"/>
<edge id="006_002_1" from="005_002" to="006_002" priority="3" numLanes="3" speed= "11.18" width="3.20"/>
<edge id="006_002_2" from="006_003" to="006_002" priority="3" numLanes="3" speed= "11.18" width="3.20"/>
<edge id="006_002_3" from="007_002" to="006_002" priority="3" numLanes="3" speed= "11.18" width="3.20"/>
<edge id="006_002_4" from="006_001" to="006_002" priority="3" numLanes="3" speed= "11.18" width="3.20"/>
<edge id="007_002_1" from="006_002" to="007_002" priority="3" numLanes="3" speed= "11.18" width="3.20"/>
<edge id="007_002_2" from="007_003" to="007_002" priority="3" numLanes="3" speed= "11.18" width="3.20"/>
<edge id="007_002_3" from="008_002" to="007_002" priority="3" numLanes="3" speed= "11.18" width="3.20"/>
<edge id="007_002_4" from="007_001" to="007_002" priority="3" numLanes="3" speed= "11.18" width="3.20"/>
<edge id="008_002_1" from="007_002" to="008_002" priority="3" numLanes="3" speed= "11.18" width="3.20"/>
<edge id="008_002_2" from="008_003" to="008_002" priority="3" numLanes="3" speed= "11.18" width="3.20"/>
<edge id="008_002_3" from="009_002" to="008_002" priority="3" numLanes="3" speed= "11.18" width="3.20"/>
<edge id="008_002_4" from="008_001" to="008_002" priority="3" numLanes="3" speed= "11.18" width="3.20"/>
<edge id="009_002_1" from="008_002" to="009_002" priority="3" numLanes="3" speed= "11.18" width="3.20"/>
<edge id="009_002_2" from="009_003" to="009_002" priority="3" numLanes="3" speed= "11.18" width="3.20"/>
<edge id="009_002_3" from="010_002" to="009_002" priority="3" numLanes="3" speed= "11.18" width="3.20"/>
<edge id="009_002_4" from="009_001" to="009_002" priority="3" numLanes="3" speed= "11.18" width="3.20"/>
<edge id="010_002_1" from="009_002" to="010_002" priority="3" numLanes="3" speed= "11.18" width="3.20"/>
<edge id="010_002_2" from="010_003" to="010_002" priority="3" numLanes="3" speed= "11.18" width="3.20"/>
<edge id="010_002_3" from="011_002" to="010_002" priority="3" numLanes="3" speed= "11.18" width="3.20"/>
<edge id="010_002_4" from="010_001" to="010_002" priority="3" numLanes="3" speed= "11.18" width="3.20"/>
<edge id="011_002_1" from="010_002" to="011_002" priority="3" numLanes="3" speed= "11.18" width="3.20"/>
<edge id="011_002_2" from="011_003" to="011_002" priority="3" numLanes="3" speed= "11.18" width="3.20"/>
<edge id="011_002_3" from="012_002" to="011_002" priority="3" numLanes="3" speed= "11.18" width="3.20"/>
<edge id="011_002_4" from="011_001" to="011_002" priority="3" numLanes="3" speed= "11.18" width="3.20"/>
<edge id="012_002_1" from="011_002" to="012_002" priority="3" numLanes="3" speed= "11.18" width="3.20"/>
<edge id="012_002_2" from="012_003" to="012_002" priority="3" numLanes="3" speed= "11.18" width="3.20"/>
<edge id="012_002_3" from="013_002" to="012_002" priority="3" numLanes="3" speed= "11.18" width="3.20"/>
<edge id="012_002_4" from="012_001" to="012_002" priority="3" numLanes="3" speed= "11.18" width="3.20"/>
<edge id="013_002_1" from="012_002" to="013_002" priority="3" numLanes="3" speed= "11.18" width="3.20"/>
<edge id="013_002_2" from="013_003" to="013_002" priority="3" numLanes="3" speed= "11.18" width="3.20"/>
<edge id="013_002_3" from="014_002" to="013_002" priority="3" numLanes="3" speed= "11.18" width="3.20"/>
<edge id="013_002_4" from="013_001" to="013_002" priority="3" numLanes="3" speed= "11.18" width="3.20"/>
<edge id="014_002_1" from="013_002" to="014_002" priority="3" numLanes="3" speed= "11.18" width="3.20"/>
<edge id="014_002_2" from="014_003" to="014_002" priority="3" numLanes="3" speed= "11.18" width="3.20"/>
<edge id="014_002_3" from="015_002" to="014_002" priority="3" numLanes="3" speed= "11.18" width="3.20"/>
<edge id="014_002_4" from="014_001" to="014_002" priority="3" numLanes="3" speed= "11.18" width="3.20"/>
<edge id="015_002_1" from="014_002" to="015_002" priority="3" numLanes="3" speed= "11.18" width="3.20"/>
<edge id="015_002_2" from="015_003" to="015_002" priority="3" numLanes="3" speed= "11.18" width="3.20"/>
<edge id="015_002_3" from="016_002" to="015_002" priority="3" numLanes="3" speed= "11.18" width="3.20"/>
<edge id="015_002_4" from="015_001" to="015_002" priority="3" numLanes="3" speed= "11.18" width="3.20"/>
<edge id="016_002_1" from="015_002" to="016_002" priority="3" numLanes="3" speed= "11.18" width="3.20"/>
<edge id="016_002_2" from="016_003" to="016_002" priority="3" numLanes="3" speed= "11.18" width="3.20"/>
<edge id="016_002_3" from="017_002" to="016_002" priority="3" numLanes="3" speed= "11.18" width="3.20"/>
<edge id="016_002_4" from="016_001" to="016_002" priority="3" numLanes="3" speed= "11.18" width="3.20"/>
<edge id="017_002_1" from="016_002" to="017_002" priority="3" numLanes="3" speed= "11.18" width="3.20"/>
<edge id="017_002_2" from="017_003" to="017_002" priority="3" numLanes="3" speed= "11.18" width="3.20"/>
<edge id="017_002_3" from="018_002" to="017_002" priority="3" numLanes="3" speed= "11.18" width="3.20"/>
<edge id="017_002_4" from="017_001" to="017_002" priority="3" numLanes="3" speed= "11.18" width="3.20"/>
<edge id="018_002_1" from="017_002" to="018_002" priority="3" numLanes="3" speed= "11.18" width="3.20"/>
<edge id="018_002_2" from="018_003" to="018_002" priority="3" numLanes="3" speed= "11.18" width="3.20"/>
<edge id="018_002_3" from="019_002" to="018_002" priority="3" numLanes="3" speed= "11.18" width="3.20"/>
<edge id="018_002_4" from="018_001" to="018_002" priority="3" numLanes="3" speed= "11.18" width="3.20"/>
<edge id="019_002_1" from="018_002" to="019_002" priority="3" numLanes="3" speed= "11.18" width="3.20"/>
<edge id="019_002_2" from="019_003" to="019_002" priority="3" numLanes="3" speed= "11.18" width="3.20"/>
<edge id="019_002_3" from="020_002" to="019_002" priority="3" numLanes="3" speed= "11.18" width="3.20"/>
<edge id="019_002_4" from="019_001" to="019_002" priority="3" numLanes="3" speed= "11.18" width="3.20"/>
<edge id="001_003_1" from="000_003" to="001_003" priority="3" numLanes="3" speed= "11.18" width="3.20"/>
<edge id="001_003_2" from="001_004" to="001_003" priority="3" numLanes="3" speed= "11.18" width="3.20"/>
<edge id="001_003_3" from="002_003" to="001_003" priority="3" numLanes="3" speed= "11.18" width="3.20"/>
<edge id="001_003_4" from="001_002" to="001_003" priority="3" numLanes="3" speed= "11.18" width="3.20"/>
<edge id="002_003_1" from="001_003" to="002_003" priority="3" numLanes="3" speed= "11.18" width="3.20"/>
<edge id="002_003_2" from="002_004" to="002_003" priority="3" numLanes="3" speed= "11.18" width="3.20"/>
<edge id="002_003_3" from="003_003" to="002_003" priority="3" numLanes="3" speed= "11.18" width="3.20"/>
<edge id="002_003_4" from="002_002" to="002_003" priority="3" numLanes="3" speed= "11.18" width="3.20"/>
<edge id="003_003_1" from="002_003" to="003_003" priority="3" numLanes="3" speed= "11.18" width="3.20"/>
<edge id="003_003_2" from="003_004" to="003_003" priority="3" numLanes="3" speed= "11.18" width="3.20"/>
<edge id="003_003_3" from="004_003" to="003_003" priority="3" numLanes="3" speed= "11.18" width="3.20"/>
<edge id="003_003_4" from="003_002" to="003_003" priority="3" numLanes="3" speed= "11.18" width="3.20"/>
<edge id="004_003_1" from="003_003" to="004_003" priority="3" numLanes="3" speed= "11.18" width="3.20"/>
<edge id="004_003_2" from="004_004" to="004_003" priority="3" numLanes="3" speed= "11.18" width="3.20"/>
<edge id="004_003_3" from="005_003" to="004_003" priority="3" numLanes="3" speed= "11.18" width="3.20"/>
<edge id="004_003_4" from="004_002" to="004_003" priority="3" numLanes="3" speed= "11.18" width="3.20"/>
<edge id="005_003_1" from="004_003" to="005_003" priority="3" numLanes="3" speed= "11.18" width="3.20"/>
<edge id="005_003_2" from="005_004" to="005_003" priority="3" numLanes="3" speed= "11.18" width="3.20"/>
<edge id="005_003_3" from="006_003" to="005_003" priority="3" numLanes="3" speed= "11.18" width="3.20"/>
<edge id="005_003_4" from="005_002" to="005_003" priority="3" numLanes="3" speed= "11.18" width="3.20"/>
<edge id="006_003_1" from="005_003" to="006_003" priority="3" numLanes="3" speed= "11.18" width="3.20"/>
<edge id="006_003_2" from="006_004" to="006_003" priority="3" numLanes="3" speed= "11.18" width="3.20"/>
<edge id="006_003_3" from="007_003" to="006_003" priority="3" numLanes="3" speed= "11.18" width="3.20"/>
<edge id="006_003_4" from="006_002" to="006_003" priority="3" numLanes="3" speed= "11.18" width="3.20"/>
<edge id="007_003_1" from="006_003" to="007_003" priority="3" numLanes="3" speed= "11.18" width="3.20"/>
<edge id="007_003_2" from="007_004" to="007_003" priority="3" numLanes="3" speed= "11.18" width="3.20"/>
<edge id="007_003_3" from="008_003" to="007_003" priority="3" numLanes="3" speed= "11.18" width="3.20"/>
<edge id="007_003_4" from="007_002" to="007_003" priority="3" numLanes="3" speed= "11.18" width="3.20"/>
<edge id="008_003_1" from="007_003" to="008_003" priority="3" numLanes="3" speed= "11.18" width="3.20"/>
<edge id="008_003_2" from="008_004" to="008_003" priority="3" numLanes="3" speed= "11.18" width="3.20"/>
<edge id="008_003_3" from="009_003" to="008_003" priority="3" numLanes="3" speed= "11.18" width="3.20"/>
<edge id="008_003_4" from="008_002" to="008_003" priority="3" numLanes="3" speed= "11.18" width="3.20"/>
<edge id="009_003_1" from="008_003" to="009_003" priority="3" numLanes="3" speed= "11.18" width="3.20"/>
<edge id="009_003_2" from="009_004" to="009_003" priority="3" numLanes="3" speed= "11.18" width="3.20"/>
<edge id="009_003_3" from="010_003" to="009_003" priority="3" numLanes="3" speed= "11.18" width="3.20"/>
<edge id="009_003_4" from="009_002" to="009_003" priority="3" numLanes="3" speed= "11.18" width="3.20"/>
<edge id="010_003_1" from="009_003" to="010_003" priority="3" numLanes="3" speed= "11.18" width="3.20"/>
<edge id="010_003_2" from="010_004" to="010_003" priority="3" numLanes="3" speed= "11.18" width="3.20"/>
<edge id="010_003_3" from="011_003" to="010_003" priority="3" numLanes="3" speed= "11.18" width="3.20"/>
<edge id="010_003_4" from="010_002" to="010_003" priority="3" numLanes="3" speed= "11.18" width="3.20"/>
<edge id="011_003_1" from="010_003" to="011_003" priority="3" numLanes="3" speed= "11.18" width="3.20"/>
<edge id="011_003_2" from="011_004" to="011_003" priority="3" numLanes="3" speed= "11.18" width="3.20"/>
<edge id="011_003_3" from="012_003" to="011_003" priority="3" numLanes="3" speed= "11.18" width="3.20"/>
<edge id="011_003_4" from="011_002" to="011_003" priority="3" numLanes="3" speed= "11.18" width="3.20"/>
<edge id="012_003_1" from="011_003" to="012_003" priority="3" numLanes="3" speed= "11.18" width="3.20"/>
<edge id="012_003_2" from="012_004" to="012_003" priority="3" numLanes="3" speed= "11.18" width="3.20"/>
<edge id="012_003_3" from="013_003" to="012_003" priority="3" numLanes="3" speed= "11.18" width="3.20"/>
<edge id="012_003_4" from="012_002" to="012_003" priority="3" numLanes="3" speed= "11.18" width="3.20"/>
<edge id="013_003_1" from="012_003" to="013_003" priority="3" numLanes="3" speed= "11.18" width="3.20"/>
<edge id="013_003_2" from="013_004" to="013_003" priority="3" numLanes="3" speed= "11.18" width="3.20"/>
<edge id="013_003_3" from="014_003" to="013_003" priority="3" numLanes="3" speed= "11.18" width="3.20"/>
<edge id="013_003_4" from="013_002" to="013_003" priority="3" numLanes="3" speed= "11.18" width="3.20"/>
<edge id="014_003_1" from="013_003" to="014_003" priority="3" numLanes="3" speed= "11.18" width="3.20"/>
<edge id="014_003_2" from="014_004" to="014_003" priority="3" numLanes="3" speed= "11.18" width="3.20"/>
<edge id="014_003_3" from="015_003" to="014_003" priority="3" numLanes="3" speed= "11.18" width="3.20"/>
<edge id="014_003_4" from="014_002" to="014_003" priority="3" numLanes="3" speed= "11.18" width="3.20"/>
<edge id="015_003_1" from="014_003" to="015_003" priority="3" numLanes="3" speed= "11.18" width="3.20"/>
<edge id="015_003_2" from="015_004" to="015_003" priority="3" numLanes="3" speed= "11.18" width="3.20"/>
<edge id="015_003_3" from="016_003" to="015_003" priority="3" numLanes="3" speed= "11.18" width="3.20"/>
<edge id="015_003_4" from="015_002" to="015_003" priority="3" numLanes="3" speed= "11.18" width="3.20"/>
<edge id="016_003_1" from="015_003" to="016_003" priority="3" numLanes="3" speed= "11.18" width="3.20"/>
<edge id="016_003_2" from="016_004" to="016_003" priority="3" numLanes="3" speed= "11.18" width="3.20"/>
<edge id="016_003_3" from="017_003" to="016_003" priority="3" numLanes="3" speed= "11.18" width="3.20"/>
<edge id="016_003_4" from="016_002" to="016_003" priority="3" numLanes="3" speed= "11.18" width="3.20"/>
<edge id="017_003_1" from="016_003" to="017_003" priority="3" numLanes="3" speed= "11.18" width="3.20"/>
<edge id="017_003_2" from="017_004" to="017_003" priority="3" numLanes="3" speed= "11.18" width="3.20"/>
<edge id="017_003_3" from="018_003" to="017_003" priority="3" numLanes="3" speed= "11.18" width="3.20"/>
<edge id="017_003_4" from="017_002" to="017_003" priority="3" numLanes="3" speed= "11.18" width="3.20"/>
<edge id="018_003_1" from="017_003" to="018_003" priority="3" numLanes="3" speed= "11.18" width="3.20"/>
<edge id="018_003_2" from="018_004" to="018_003" priority="3" numLanes="3" speed= "11.18" width="3.20"/>
<edge id="018_003_3" from="019_003" to="018_003" priority="3" numLanes="3" speed= "11.18" width="3.20"/>
<edge id="018_003_4" from="018_002" to="018_003" priority="3" numLanes="3" speed= "11.18" width="3.20"/>
<edge id="019_003_1" from="018_003" to="019_003" priority="3" numLanes="3" speed= "11.18" width="3.20"/>
<edge id="019_003_2" from="019_004" to="019_003" priority="3" numLanes="3" speed= "11.18" width="3.20"/>
<edge id="019_003_3" from="020_003" to="019_003" priority="3" numLanes="3" speed= "11.18" width="3.20"/>
<edge id="019_003_4" from="019_002" to="019_003" priority="3" numLanes="3" speed= "11.18" width="3.20"/>
<edge id="001_004_1" from="000_004" to="001_004" priority="3" numLanes="3" speed= "11.18" width="3.20"/>
<edge id="001_004_2" from="001_005" to="001_004" priority="3" numLanes="3" speed= "11.18" width="3.20"/>
<edge id="001_004_3" from="002_004" to="001_004" priority="3" numLanes="3" speed= "11.18" width="3.20"/>
<edge id="001_004_4" from="001_003" to="001_004" priority="3" numLanes="3" speed= "11.18" width="3.20"/>
<edge id="002_004_1" from="001_004" to="002_004" priority="3" numLanes="3" speed= "11.18" width="3.20"/>
<edge id="002_004_2" from="002_005" to="002_004" priority="3" numLanes="3" speed= "11.18" width="3.20"/>
<edge id="002_004_3" from="003_004" to="002_004" priority="3" numLanes="3" speed= "11.18" width="3.20"/>
<edge id="002_004_4" from="002_003" to="002_004" priority="3" numLanes="3" speed= "11.18" width="3.20"/>
<edge id="003_004_1" from="002_004" to="003_004" priority="3" numLanes="3" speed= "11.18" width="3.20"/>
<edge id="003_004_2" from="003_005" to="003_004" priority="3" numLanes="3" speed= "11.18" width="3.20"/>
<edge id="003_004_3" from="004_004" to="003_004" priority="3" numLanes="3" speed= "11.18" width="3.20"/>
<edge id="003_004_4" from="003_003" to="003_004" priority="3" numLanes="3" speed= "11.18" width="3.20"/>
<edge id="004_004_1" from="003_004" to="004_004" priority="3" numLanes="3" speed= "11.18" width="3.20"/>
<edge id="004_004_2" from="004_005" to="004_004" priority="3" numLanes="3" speed= "11.18" width="3.20"/>
<edge id="004_004_3" from="005_004" to="004_004" priority="3" numLanes="3" speed= "11.18" width="3.20"/>
<edge id="004_004_4" from="004_003" to="004_004" priority="3" numLanes="3" speed= "11.18" width="3.20"/>
<edge id="005_004_1" from="004_004" to="005_004" priority="3" numLanes="3" speed= "11.18" width="3.20"/>
<edge id="005_004_2" from="005_005" to="005_004" priority="3" numLanes="3" speed= "11.18" width="3.20"/>
<edge id="005_004_3" from="006_004" to="005_004" priority="3" numLanes="3" speed= "11.18" width="3.20"/>
<edge id="005_004_4" from="005_003" to="005_004" priority="3" numLanes="3" speed= "11.18" width="3.20"/>
<edge id="006_004_1" from="005_004" to="006_004" priority="3" numLanes="3" speed= "11.18" width="3.20"/>
<edge id="006_004_2" from="006_005" to="006_004" priority="3" numLanes="3" speed= "11.18" width="3.20"/>
<edge id="006_004_3" from="007_004" to="006_004" priority="3" numLanes="3" speed= "11.18" width="3.20"/>
<edge id="006_004_4" from="006_003" to="006_004" priority="3" numLanes="3" speed= "11.18" width="3.20"/>
<edge id="007_004_1" from="006_004" to="007_004" priority="3" numLanes="3" speed= "11.18" width="3.20"/>
<edge id="007_004_2" from="007_005" to="007_004" priority="3" numLanes="3" speed= "11.18" width="3.20"/>
<edge id="007_004_3" from="008_004" to="007_004" priority="3" numLanes="3" speed= "11.18" width="3.20"/>
<edge id="007_004_4" from="007_003" to="007_004" priority="3" numLanes="3" speed= "11.18" width="3.20"/>
<edge id="008_004_1" from="007_004" to="008_004" priority="3" numLanes="3" speed= "11.18" width="3.20"/>
<edge id="008_004_2" from="008_005" to="008_004" priority="3" numLanes="3" speed= "11.18" width="3.20"/>
<edge id="008_004_3" from="009_004" to="008_004" priority="3" numLanes="3" speed= "11.18" width="3.20"/>
<edge id="008_004_4" from="008_003" to="008_004" priority="3" numLanes="3" speed= "11.18" width="3.20"/>
<edge id="009_004_1" from="008_004" to="009_004" priority="3" numLanes="3" speed= "11.18" width="3.20"/>
<edge id="009_004_2" from="009_005" to="009_004" priority="3" numLanes="3" speed= "11.18" width="3.20"/>
<edge id="009_004_3" from="010_004" to="009_004" priority="3" numLanes="3" speed= "11.18" width="3.20"/>
<edge id="009_004_4" from="009_003" to="009_004" priority="3" numLanes="3" speed= "11.18" width="3.20"/>
<edge id="010_004_1" from="009_004" to="010_004" priority="3" numLanes="3" speed= "11.18" width="3.20"/>
<edge id="010_004_2" from="010_005" to="010_004" priority="3" numLanes="3" speed= "11.18" width="3.20"/>
<edge id="010_004_3" from="011_004" to="010_004" priority="3" numLanes="3" speed= "11.18" width="3.20"/>
<edge id="010_004_4" from="010_003" to="010_004" priority="3" numLanes="3" speed= "11.18" width="3.20"/>
<edge id="011_004_1" from="010_004" to="011_004" priority="3" numLanes="3" speed= "11.18" width="3.20"/>
<edge id="011_004_2" from="011_005" to="011_004" priority="3" numLanes="3" speed= "11.18" width="3.20"/>
<edge id="011_004_3" from="012_004" to="011_004" priority="3" numLanes="3" speed= "11.18" width="3.20"/>
<edge id="011_004_4" from="011_003" to="011_004" priority="3" numLanes="3" speed= "11.18" width="3.20"/>
<edge id="012_004_1" from="011_004" to="012_004" priority="3" numLanes="3" speed= "11.18" width="3.20"/>
<edge id="012_004_2" from="012_005" to="012_004" priority="3" numLanes="3" speed= "11.18" width="3.20"/>
<edge id="012_004_3" from="013_004" to="012_004" priority="3" numLanes="3" speed= "11.18" width="3.20"/>
<edge id="012_004_4" from="012_003" to="012_004" priority="3" numLanes="3" speed= "11.18" width="3.20"/>
<edge id="013_004_1" from="012_004" to="013_004" priority="3" numLanes="3" speed= "11.18" width="3.20"/>
<edge id="013_004_2" from="013_005" to="013_004" priority="3" numLanes="3" speed= "11.18" width="3.20"/>
<edge id="013_004_3" from="014_004" to="013_004" priority="3" numLanes="3" speed= "11.18" width="3.20"/>
<edge id="013_004_4" from="013_003" to="013_004" priority="3" numLanes="3" speed= "11.18" width="3.20"/>
<edge id="014_004_1" from="013_004" to="014_004" priority="3" numLanes="3" speed= "11.18" width="3.20"/>
<edge id="014_004_2" from="014_005" to="014_004" priority="3" numLanes="3" speed= "11.18" width="3.20"/>
<edge id="014_004_3" from="015_004" to="014_004" priority="3" numLanes="3" speed= "11.18" width="3.20"/>
<edge id="014_004_4" from="014_003" to="014_004" priority="3" numLanes="3" speed= "11.18" width="3.20"/>
<edge id="015_004_1" from="014_004" to="015_004" priority="3" numLanes="3" speed= "11.18" width="3.20"/>