<nodes>
<node id="000_001" x="-286.400000" y="227.200000" type="priority" />
<node id="000_002" x="-286.400000" y="454.400000" type="priority" />
<node id="000_003" x="-286.400000" y="681.600000" type="priority" />
<node id="000_004" x="-286.400000" y="908.800000" type="priority" />
<node id="000_005" x="-286.400000" y="1136.000000" type="priority" />
<node id="000_006" x="-286.400000" y="1363.200000" type="priority" />
<node id="000_007" x="-286.400000" y="1590.400000" type="priority" />
<node id="000_008" x="-286.400000" y="1817.600000" type="priority" />
<node id="000_009" x="-286.400000" y="2044.800000" type="priority" />
<node id="000_010" x="-286.400000" y="2272.000000" type="priority" />
<node id="000_011" x="-286.400000" y="2499.200000" type="priority" />
<node id="000_012" x="-286.400000" y="2726.400000" type="priority" />
<node id="000_013" x="-286.400000" y="2953.600000" type="priority" />
<node id="000_014" x="-286.400000" y="3180.800000" type="priority" />
<node id="000_015" x="-286.400000" y="3408.000000" type="priority" />
<node id="000_016" x="-286.400000" y="3635.200000" type="priority" />
<node id="000_017" x="-286.400000" y="3862.400000" type="priority" />
<node id="000_018" x="-286.400000" y="4089.600000" type="priority" />
<node id="000_019" x="-286.400000" y="4316.800000" type="priority" />
<node id="000_020" x="-286.400000" y="4544.000000" type="priority" />
<node id="000_021" x="-286.400000" y="4771.200000" type="priority" />
<node id="000_022" x="-286.400000" y="4998.400000" type="priority" />
<node id="000_023" x="-286.400000" y="5225.600000" type="priority" />
<node id="000_024" x="-286.400000" y="5452.800000" type="priority" />
<node id="000_025" x="-286.400000" y="5680.000000" type="priority" />
<node id="000_026" x="-286.400000" y="5907.200000" type="priority" />
<node id="000_027" x="-286.400000" y="6134.400000" type="priority" />
<node id="000_028" x="-286.400000" y="6361.600000" type="priority" />
<node id="000_029" x="-286.400000" y="6588.800000" type="priority" />
<node id="000_030" x="-286.400000" y="6816.000000" type="priority" />
<node id="000_031" x="-286.400000" y="7043.200000" type="priority" />
<node id="000_032" x="-286.400000" y="7270.400000" type="priority" />
<node id="000_033" x="-286.400000" y="7497.600000" type="priority" />
<node id="000_034" x="-286.400000" y="7724.800000" type="priority" />
<node id="000_035" x="-286.400000" y="7952.000000" type="priority" />
<node id="000_036" x="-286.400000" y="8179.200000" type="priority" />
<node id="000_037" x="-286.400000" y="8406.400000" type="priority" />
<node id="000_038" x="-286.400000" y="8633.600000" type="priority" />
<node id="000_039" x="-286.400000" y="8860.800000" type="priority" />
<node id="000_040" x="-286.400000" y="9088.000000" type="priority" />
<node id="000_041" x="-286.400000" y="9315.200000" type="priority" />
<node id="000_042" x="-286.400000" y="9542.400000" type="priority" />
<node id="000_043" x="-286.400000" y="9769.600000" type="priority" />
<node id="000_044" x="-286.400000" y="9996.800000" type="priority" />
<node id="000_045" x="-286.400000" y="10224.000000" type="priority" />
<node id="000_046" x="-286.400000" y="10451.200000" type="priority" />
<node id="000_047" x="-286.400000" y="10678.400000" type="priority" />
<node id="000_048" x="-286.400000" y="10905.600000" type="priority" />
<node id="000_049" x="-286.400000" y="11132.800000" type="priority" />
<node id="000_050" x="-286.400000" y="11360.000000" type="priority" />
<node id="001_000" x="227.200000" y="-286.400000" type="priority" />
<node id="001_001" x="227.200000" y="227.200000" type="priority" />
<node id="001_002" x="227.200000" y="454.400000" type="priority" />
<node id="001_003" x="227.200000" y="681.600000" type="priority" />
<node id="001_004" x="227.200000" y="908.800000" type="priority" />
<node id="001_005" x="227.200000" y="1136.000000" type="priority" />
<node id="001_006" x="227.200000" y="1363.200000" type="priority" />
<node id="001_007" x="227.200000" y="1590.400000" type="priority" />
<node id="001_008" x="227.200000" y="1817.600000" type="priority" />
<node id="001_009" x="227.200000" y="2044.800000" type="priority" />
<node id="001_010" x="227.200000" y="2272.000000" type="priority" />
<node id="001_011" x="227.200000" y="2499.200000" type="priority" />
<node id="001_012" x="227.200000" y="2726.400000" type="priority" />
<node id="001_013" x="227.200000" y="2953.600000" type="priority" />
<node id="001_014" x="227.200000" y="3180.800000" type="priority" />
<node id="001_015" x="227.200000" y="3408.000000" type="priority" />
<node id="001_016" x="227.200000" y="3635.200000" type="priority" />
<node id="001_017" x="227.200000" y="3862.400000" type="priority" />
<node id="001_018" x="227.200000" y="4089.600000" type="priority" />
<node id="001_019" x="227.200000" y="4316.800000" type="priority" />
<node id="001_020" x="227.200000" y="4544.000000" type="priority" />
<node id="001_021" x="227.200000" y="4771.200000" type="priority" />
<node id="001_022" x="227.200000" y="4998.400000" type="priority" />
<node id="001_023" x="227.200000" y="5225.600000" type="priority" />
<node id="001_024" x="227.200000" y="5452.800000" type="priority" />
<node id="001_025" x="227.200000" y="5680.000000" type="priority" />
<node id="001_026" x="227.200000" y="5907.200000" type="priority" />
<node id="001_027" x="227.200000" y="6134.400000" type="priority" />
<node id="001_028" x="227.200000" y="6361.600000" type="priority" />
<node id="001_029" x="227.200000" y="6588.800000" type="priority" />
<node id="001_030" x="227.200000" y="6816.000000" type="priority" />
<node id="001_031" x="227.200000" y="7043.200000" type="priority" />
<node id="001_032" x="227.200000" y="7270.400000" type="priority" />
<node id="001_033" x="227.200000" y="7497.600000" type="priority" />
<node id="001_034" x="227.200000" y="7724.800000" type="priority" />
<node id="001_035" x="227.200000" y="7952.000000" type="priority" />
<node id="001_036" x="227.200000" y="8179.200000" type="priority" />
<node id="001_037" x="227.200000" y="8406.400000" type="priority" />
<node id="001_038" x="227.200000" y="8633.600000" type="priority" />
<node id="001_039" x="227.200000" y="8860.800000" type="priority" />
<node id="001_040" x="227.200000" y="9088.000000" type="priority" />
<node id="001_041" x="227.200000" y="9315.200000" type="priority" />
<node id="001_042" x="227.200000" y="9542.400000" type="priority" />
<node id="001_043" x="227.200000" y="9769.600000" type="priority" />
<node id="001_044" x="227.200000" y="9996.800000" type="priority" />
<node id="001_045" x="227.200000" y="10224.000000" type="priority" />
<node id="001_046" x="227.200000" y="10451.200000" type="priority" />
<node id="001_047" x="227.200000" y="10678.400000" type="priority" />
<node id="001_048" x="227.200000" y="10905.600000" type="priority" />
<node id="001_049" x="227.200000" y="11132.800000" type="priority" />
<node id="001_050" x="227.200000" y="11360.000000" type="priority" />
<node id="001_051" x="227.200000" y="11873.600000" type="priority" />
<node id="002_000" x="454.400000" y="-286.400000" type="priority" />
<node id="002_001" x="454.400000" y="227.200000" type="priority" />
<node id="002_002" x="454.400000" y="454.400000" type="priority" />
<node id="002_003" x="454.400000" y="681.600000" type="priority" />
<node id="002_004" x="454.400000" y="908.800000" type="priority" />
<node id="002_005" x="454.400000" y="1136.000000" type="priority" />
<node id="002_006" x="454.400000" y="1363.200000" type="priority" />
<node id="002_007" x="454.400000" y="1590.400000" type="priority" />
<node id="002_008" x="454.400000" y="1817.600000" type="priority" />
<node id="002_009" x="454.400000" y="2044.800000" type="priority" />
<node id="002_010" x="454.400000" y="2272.000000" type="priority" />
<node id="002_011" x="454.400000" y="2499.200000" type="priority" />
<node id="002_012" x="454.400000" y="2726.400000" type="priority" />
<node id="002_013" x="454.400000" y="2953.600000" type="priority" />
<node id="002_014" x="454.400000" y="3180.800000" type="priority" />
<node id="002_015" x="454.400000" y="3408.000000" type="priority" />
<node id="002_016" x="454.400000" y="3635.200000" type="priority" />
<node id="002_017" x="454.400000" y="3862.400000" type="priority" />
<node id="002_018" x="454.400000" y="4089.600000" type="priority" />
<node id="002_019" x="454.400000" y="4316.800000" type="priority" />
<node id="002_020" x="454.400000" y="4544.000000" type="priority" />
<node id="002_021" x="454.400000" y="4771.200000" type="priority" />
<node id="002_022" x="454.400000" y="4998.400000" type="priority" />
<node id="002_023" x="454.400000" y="5225.600000" type="priority" />
<node id="002_024" x="454.400000" y="5452.800000" type="priority" />
<node id="002_025" x="454.400000" y="5680.000000" type="priority" />
<node id="002_026" x="454.400000" y="5907.200000" type="priority" />
<node id="002_027" x="454.400000" y="6134.400000" type="priority" />
<node id="002_028" x="454.400000" y="6361.600000" type="priority" />
<node id="002_029" x="454.400000" y="6588.800000" type="priority" />
<node id="002_030" x="454.400000" y="6816.000000" type="priority" />
<node id="002_031" x="454.400000" y="7043.200000" type="priority" />
<node id="002_032" x="454.400000" y="7270.400000" type="priority" />
<node id="002_033" x="454.400000" y="7497.600000" type="priority" />
<node id="002_034" x="454.400000" y="7724.800000" type="priority" />
<node id="002_035" x="454.400000" y="7952.000000" type="priority" />
<node id="002_036" x="454.400000" y="8179.200000" type="priority" />
<node id="002_037" x="454.400000" y="8406.400000" type="priority" />
<node id="002_038" x="454.400000" y="8633.600000" type="priority" />
<node id="002_039" x="454.400000" y="8860.800000" type="priority" />
<node id="002_040" x="454.400000" y="9088.000000" type="priority" />
<node id="002_041" x="454.400000" y="9315.200000" type="priority" />
<node id="002_042" x="454.400000" y="9542.400000" type="priority" />
<node id="002_043" x="454.400000" y="9769.600000" type="priority" />
<node id="002_044" x="454.400000" y="9996.800000" type="priority" />
<node id="002_045" x="454.400000" y="10224.000000" type="priority" />
<node id="002_046" x="454.400000" y="10451.200000" type="priority" />
<node id="002_047" x="454.400000" y="10678.400000" type="priority" />
<node id="002_048" x="454.400000" y="10905.600000" type="priority" />
<node id="002_049" x="454.400000" y="11132.800000" type="priority" />
<node id="002_050" x="454.400000" y="11360.000000" type="priority" />
<node id="002_051" x="454.400000" y="11873.600000" type="priority" />
<node id="003_000" x="681.600000" y="-286.400000" type="priority" />
<node id="003_001" x="681.600000" y="227.200000" type="priority" />
<node id="003_002" x="681.600000" y="454.400000" type="priority" />
<node id="003_003" x="681.600000" y="681.600000" type="priority" />
<node id="003_004" x="681.600000" y="908.800000" type="priority" />
<node id="003_005" x="681.600000" y="1136.000000" type="priority" />
<node id="003_006" x="681.600000" y="1363.200000" type="priority" />
<node id="003_007" x="681.600000" y="1590.400000" type="priority" />
<node id="003_008" x="681.600000" y="1817.600000" type="priority" />
<node id="003_009" x="681.600000" y="2044.800000" type="priority" />
<node id="003_010" x="681.600000" y="2272.000000" type="priority" />
<node id="003_011" x="681.600000" y="2499.200000" type="priority" />
<node id="003_012" x="681.600000" y="2726.400000" type="priority" />
<node id="003_013" x="681.600000" y="2953.600000" type="priority" />
<node id="003_014" x="681.600000" y="3180.800000" type="priority" />
<node id="003_015" x="681.600000" y="3408.000000" type="priority" />
<node id="003_016" x="681.600000" y="3635.200000" type="priority" />
<node id="003_017" x="681.600000" y="3862.400000" type="priority" />
<node id="003_018" x="681.600000" y="4089.600000" type="priority" />
<node id="003_019" x="681.600000" y="4316.800000" type="priority" />
<node id="003_020" x="681.600000" y="4544.000000" type="priority" />
<node id="003_021" x="681.600000" y="4771.200000" type="priority" />
<node id="003_022" x="681.600000" y="4998.400000" type="priority" />
<node id="003_023" x="681.600000" y="5225.600000" type="priority" />
<node id="003_024" x="681.600000" y="5452.800000" type="priority" />
<node id="003_025" x="681.600000" y="5680.000000" type="priority" />
<node id="003_026" x="681.600000" y="5907.200000" type="priority" />
<node id="003_027" x="681.600000" y="6134.400000" type="priority" />
<node id="003_028" x="681.600000" y="6361.600000" type="priority" />
<node id="003_029" x="681.600000" y="6588.800000" type="priority" />
<node id="003_030" x="681.600000" y="6816.000000" type="priority" />
<node id="003_031" x="681.600000" y="7043.200000" type="priority" />
<node id="003_032" x="681.600000" y="7270.400000" type="priority" />
<node id="003_033" x="681.600000" y="7497.600000" type="priority" />
<node id="003_034" x="681.600000" y="7724.800000" type="priority" />
<node id="003_035" x="681.600000" y="7952.000000" type="priority" />
<node id="003_036" x="681.600000" y="8179.200000" type="priority" />
<node id="003_037" x="681.600000" y="8406.400000" type="priority" />
<node id="003_038" x="681.600000" y="8633.600000" type="priority" />
<node id="003_039" x="681.600000" y="8860.800000" type="priority" />
<node id="003_040" x="681.600000" y="9088.000000" type="priority" />
<node id="003_041" x="681.600000" y="9315.200000" type="priority" />
<node id="003_042" x="681.600000" y="9542.400000" type="priority" />
<node id="003_043" x="681.600000" y="9769.600000" type="priority" />
<node id="003_044" x="681.600000" y="9996.800000" type="priority" />
<node id="003_045" x="681.600000" y="10224.000000" type="priority" />
<node id="003_046" x="681.600000" y="10451.200000" type="priority" />
<node id="003_047" x="681.600000" y="10678.400000" type="priority" />
<node id="003_048" x="681.600000" y="10905.600000" type="priority" />
<node id="003_049" x="681.600000" y="11132.800000" type="priority" />
<node id="003_050" x="681.600000" y="11360.000000" type="priority" />
<node id="003_051" x="681.600000" y="11873.600000" type="priority" />
<node id="004_000" x="908.800000" y="-286.400000" type="priority" />
<node id="004_001" x="908.800000" y="227.200000" type="priority" />
<node id="004_002" x="908.800000" y="454.400000" type="priority" />
<node id="004_003" x="908.800000" y="681.600000" type="priority" />
<node id="004_004" x="908.800000" y="908.800000" type="priority" />
<node id="004_005" x="908.800000" y="1136.000000" type="priority" />
<node id="004_006" x="908.800000" y="1363.200000" type="priority" />
<node id="004_007" x="908.800000" y="1590.400000" type="priority" />
<node id="004_008" x="908.800000" y="1817.600000" type="priority" />
<node id="004_009" x="908.800000" y="2044.800000" type="priority" />
<node id="004_010" x="908.800000" y="2272.000000" type="priority" />
<node id="004_011" x="908.800000" y="2499.200000" type="priority" />
<node id="004_012" x="908.800000" y="2726.400000" type="priority" />
<node id="004_013" x="908.800000" y="2953.600000" type="priority" />
<node id="004_014" x="908.800000" y="3180.800000" type="priority" />
<node id="004_015" x="908.800000" y="3408.000000" type="priority" />
<node id="004_016" x="908.800000" y="3635.200000" type="priority" />
<node id="004_017" x="908.800000" y="3862.400000" type="priority" />
<node id="004_018" x="908.800000" y="4089.600000" type="priority" />
<node id="004_019" x="908.800000" y="4316.800000" type="priority" />
<node id="004_020" x="908.800000" y="4544.000000" type="priority" />
<node id="004_021" x="908.800000" y="4771.200000" type="priority" />
<node id="004_022" x="908.800000" y="4998.400000" type="priority" />
<node id="004_023" x="908.800000" y="5225.600000" type="priority" />
<node id="004_024" x="908.800000" y="5452.800000" type="priority" />
<node id="004_025" x="908.800000" y="5680.000000" type="priority" />
<node id="004_026" x="908.800000" y="5907.200000" type="priority" />
<node id="004_027" x="908.800000" y="6134.400000" type="priority" />
<node id="004_028" x="908.800000" y="6361.600000" type="priority" />
<node id="004_029" x="908.800000" y="6588.800000" type="priority" />
<node id="004_030" x="908.800000" y="6816.000000" type="priority" />
<node id="004_031" x="908.800000" y="7043.200000" type="priority" />
<node id="004_032" x="908.800000" y="7270.400000" type="priority" />
<node id="004_033" x="908.800000" y="7497.600000" type="priority" />
<node id="004_034" x="908.800000" y="7724.800000" type="priority" />
<node id="004_035" x="908.800000" y="7952.000000" type="priority" />
<node id="004_036" x="908.800000" y="8179.200000" type="priority" />
<node id="004_037" x="908.800000" y="8406.400000" type="priority" />
<node id="004_038" x="908.800000" y="8633.600000" type="priority" />
<node id="004_039" x="908.800000" y="8860.800000" type="priority" />
<node id="004_040" x="908.800000" y="9088.000000" type="priority" />
<node id="004_041" x="908.800000" y="9315.200000" type="priority" />
<node id="004_042" x="908.800000" y="9542.400000" type="priority" />
<node id="004_043" x="908.800000" y="9769.600000" type="priority" />
<node id="004_044" x="908.800000" y="9996.800000" type="priority" />
<node id="004_045" x="908.800000" y="10224.000000" type="priority" />
<node id="004_046" x="908.800000" y="10451.200000" type="priority" />
<node id="004_047" x="908.800000" y="10678.400000" type="priority" />
<node id="004_048" x="908.800000" y="10905.600000" type="priority" />
<node id="004_049" x="908.800000" y="11132.800000" type="priority" />
<node id="004_050" x="908.800000" y="11360.000000" type="priority" />
<node id="004_051" x="908.800000" y="11873.600000" type="priority" />
<node id="005_000" x="1136.000000" y="-286.400000" type="priority" />
<node id="005_001" x="1136.000000" y="227.200000" type="priority" />
<node id="005_002" x="1136.000000" y="454.400000" type="priority" />
<node id="005_003" x="1136.000000" y="681.600000" type="priority" />
<node id="005_004" x="1136.000000" y="908.800000" type="priority" />
<node id="005_005" x="1136.000000" y="1136.000000" type="priority" />
<node id="005_006" x="1136.000000" y="1363.200000" type="priority" />
<node id="005_007" x="1136.000000" y="1590.400000" type="priority" />
<node id="005_008" x="1136.000000" y="1817.600000" type="priority" />
<node id="005_009" x="1136.000000" y="2044.800000" type="priority" />
<node id="005_010" x="1136.000000" y="2272.000000" type="priority" />
<node id="005_011" x="1136.000000" y="2499.200000" type="priority" />
<node id="005_012" x="1136.000000" y="2726.400000" type="priority" />
<node id="005_013" x="1136.000000" y="2953.600000" type="priority" />
<node id="005_014" x="1136.000000" y="3180.800000" type="priority" />
<node id="005_015" x="1136.000000" y="3408.000000" type="priority" />
<node id="005_016" x="1136.000000" y="3635.200000" type="priority" />
<node id="005_017" x="1136.000000" y="3862.400000" type="priority" />
<node id="005_018" x="1136.000000" y="4089.600000" type="priority" />
<node id="005_019" x="1136.000000" y="4316.800000" type="priority" />
<node id="005_020" x="1136.000000" y="4544.000000" type="priority" />
<node id="005_021" x="1136.000000" y="4771.200000" type="priority" />
<node id="005_022" x="1136.000000" y="4998.400000" type="priority" />
<node id="005_023" x="1136.000000" y="5225.600000" type="priority" />
<node id="005_024" x="1136.000000" y="5452.800000" type="priority" />
<node id="005_025" x="1136.000000" y="5680.000000" type="priority" />
<node id="005_026" x="1136.000000" y="5907.200000" type="priority" />
<node id="005_027" x="1136.000000" y="6134.400000" type="priority" />
<node id="005_028" x="1136.000000" y="6361.600000" type="priority" />
<node id="005_029" x="1136.000000" y="6588.800000" type="priority" />
<node id="005_030" x="1136.000000" y="6816.000000" type="priority" />
<node id="005_031" x="1136.000000" y="7043.200000" type="priority" />
<node id="005_032" x="1136.000000" y="7270.400000" type="priority" />
<node id="005_033" x="1136.000000" y="7497.600000" type="priority" />
<node id="005_034" x="1136.000000" y="7724.800000" type="priority" />
<node id="005_035" x="1136.000000" y="7952.000000" type="priority" />
<node id="005_036" x="1136.000000" y="8179.200000" type="priority" />
<node id="005_037" x="1136.000000" y="8406.400000" type="priority" />
<node id="005_038" x="1136.000000" y="8633.600000" type="priority" />
<node id="005_039" x="1136.000000" y="8860.800000" type="priority" />
<node id="005_040" x="1136.000000" y="9088.000000" type="priority" />
<node id="005_041" x="1136.000000" y="9315.200000" type="priority" />
<node id="005_042" x="1136.000000" y="9542.400000" type="priority" />
<node id="005_043" x="1136.000000" y="9769.600000" type="priority" />
<node id="005_044" x="1136.000000" y="9996.800000" type="priority" />
<node id="005_045" x="1136.000000" y="10224.000000" type="priority" />
<node id="005_046" x="1136.000000" y="10451.200000" type="priority" />
<node id="005_047" x="1136.000000" y="10678.400000" type="priority" />
<node id="005_048" x="1136.000000" y="10905.600000" type="priority" />
<node id="005_049" x="1136.000000" y="11132.800000" type="priority" />
<node id="005_050" x="1136.000000" y="11360.000000" type="priority" />
<node id="005_051" x="1136.000000" y="11873.600000" type="priority" />
<node id="006_000" x="1363.200000" y="-286.400000" type="priority" />
<node id="006_001" x="1363.200000" y="227.200000" type="priority" />
<node id="006_002" x="1363.200000" y="454.400000" type="priority" />
<node id="006_003" x="1363.200000" y="681.600000" type="priority" />
<node id="006_004" x="1363.200000" y="908.800000" type="priority" />
<node id="006_005" x="1363.200000" y="1136.000000" type="priority" />
<node id="006_006" x="1363.200000" y="1363.200000" type="priority" />
<node id="006_007" x="1363.200000" y="1590.400000" type="priority" />
<node id="006_008" x="1363.200000" y="1817.600000" type="priority" />
<node id="006_009" x="1363.200000" y="2044.800000" type="priority" />
<node id="006_010" x="1363.200000" y="2272.000000" type="priority" />
<node id="006_011" x="1363.200000" y="2499.200000" type="priority" />
<node id="006_012" x="1363.200000" y="2726.400000" type="priority" />
<node id="006_013" x="1363.200000" y="2953.600000" type="priority" />
<node id="006_014" x="1363.200000" y="3180.800000" type="priority" />
<node id="006_015" x="1363.200000" y="3408.000000" type="priority" />
<node id="006_016" x="1363.200000" y="3635.200000" type="priority" />
<node id="006_017" x="1363.200000" y="3862.400000" type="priority" />
<node id="006_018" x="1363.200000" y="4089.600000" type="priority" />
<node id="006_019" x="1363.200000" y="4316.800000" type="priority" />
<node id="006_020" x="1363.200000" y="4544.000000" type="priority" />
<node id="006_021" x="1363.200000" y="4771.200000" type="priority" />
<node id="006_022" x="1363.200000" y="4998.400000" type="priority" />
<node id="006_023" x="1363.200000" y="5225.600000" type="priority" />
<node id="006_024" x="1363.200000" y="5452.800000" type="priority" />
<node id="006_025" x="1363.200000" y="5680.000000" type="priority" />
<node id="006_026" x="1363.200000" y="5907.200000" type="priority" />
<node id="006_027" x="1363.200000" y="6134.400000" type="priority" />
<node id="006_028" x="1363.200000" y="6361.600000" type="priority" />
<node id="006_029" x="1363.200000" y="6588.800000" type="priority" />
<node id="006_030" x="1363.200000" y="6816.000000" type="priority" />
<node id="006_031" x="1363.200000" y="7043.200000" type="priority" />
<node id="006_032" x="1363.200000" y="7270.400000" type="priority" />
<node id="006_033" x="1363.200000" y="7497.600000" type="priority" />
<node id="006_034" x="1363.200000" y="7724.800000" type="priority" />
<node id="006_035" x="1363.200000" y="7952.000000" type="priority" />
<node id="006_036" x="1363.200000" y="8179.200000" type="priority" />
<node id="006_037" x="1363.200000" y="8406.400000" type="priority" />
<node id="006_038" x="1363.200000" y="8633.600000" type="priority" />
<node id="006_039" x="1363.200000" y="8860.800000" type="priority" />
<node id="006_040" x="1363.200000" y="9088.000000" type="priority" />
<node id="006_041" x="1363.200000" y="9315.200000" type="priority" />
<node id="006_042" x="1363.200000" y="9542.400000" type="priority" />
<node id="006_043" x="1363.200000" y="9769.600000" type="priority" />
<node id="006_044" x="1363.200000" y="9996.800000" type="priority" />
<node id="006_045" x="1363.200000" y="10224.000000" type="priority" />
<node id="006_046" x="1363.200000" y="10451.200000" type="priority" />
<node id="006_047" x="1363.200000" y="10678.400000" type="priority" />
<node id="006_048" x="1363.200000" y="10905.600000" type="priority" />
<node id="006_049" x="1363.200000" y="11132.800000" type="priority" />
<node id="006_050" x="1363.200000" y="11360.000000" type="priority" />
<node id="006_051" x="1363.200000" y="11873.600000" type="priority" />
<node id="007_000" x="1590.400000" y="-286.400000" type="priority" />
<node id="007_001" x="1590.400000" y="227.200000" type="priority" />
<node id="007_002" x="1590.400000" y="454.400000" type="priority" />
<node id="007_003" x="1590.400000" y="681.600000" type="priority" />
<node id="007_004" x="1590.400000" y="908.800000" type="priority" />
<node id="007_005" x="1590.400000" y="1136.000000" type="priority" />
<node id="007_006" x="1590.400000" y="1363.200000" type="priority" />
<node id="007_007" x="1590.400000" y="1590.400000" type="priority" />
<node id="007_008" x="1590.400000" y="1817.600000" type="priority" />
<node id="007_009" x="1590.400000" y="2044.800000" type="priority" />
<node id="007_010" x="1590.400000" y="2272.000000" type="priority" />
<node id="007_011" x="1590.400000" y="2499.200000" type="priority" />
<node id="007_012" x="1590.400000" y="2726.400000" type="priority" />
<node id="007_013" x="1590.400000" y="2953.600000" type="priority" />
<node id="007_014" x="1590.400000" y="3180.800000" type="priority" />
<node id="007_015" x="1590.400000" y="3408.000000" type="priority" />
<node id="007_016" x="1590.400000" y="3635.200000" type="priority" />
<node id="007_017" x="1590.400000" y="3862.400000" type="priority" />
<node id="007_018" x="1590.400000" y="4089.600000" type="priority" />
<node id="007_019" x="1590.400000" y="4316.800000" type="priority" />
<node id="007_020" x="1590.400000" y="4544.000000" type="priority" />
<node id="007_021" x="1590.400000" y="4771.200000" type="priority" />
<node id="007_022" x="1590.400000" y="4998.400000" type="priority" />
<node id="007_023" x="1590.400000" y="5225.600000" type="priority" />
<node id="007_024" x="1590.400000" y="5452.800000" type="priority" />
<node id="007_025" x="1590.400000" y="5680.000000" type="priority" />
<node id="007_026" x="1590.400000" y="5907.200000" type="priority" />
<node id="007_027" x="1590.400000" y="6134.400000" type="priority" />
<node id="007_028" x="1590.400000" y="6361.600000" type="priority" />
<node id="007_029" x="1590.400000" y="6588.800000" type="priority" />
<node id="007_030" x="1590.400000" y="6816.000000" type="priority" />
<node id="007_031" x="1590.400000" y="7043.200000" type="priority" />
<node id="007_032" x="1590.400000" y="7270.400000" type="priority" />
<node id="007_033" x="1590.400000" y="7497.600000" type="priority" />
<node id="007_034" x="1590.400000" y="7724.800000" type="priority" />
<node id="007_035" x="1590.400000" y="7952.000000" type="priority" />
<node id="007_036" x="1590.400000" y="8179.200000" type="priority" />
<node id="007_037" x="1590.400000" y="8406.400000" type="priority" />
<node id="007_038" x="1590.400000" y="8633.600000" type="priority" />
<node id="007_039" x="1590.400000" y="8860.800000" type="priority" />
<node id="007_040" x="1590.400000" y="9088.000000" type="priority" />
<node id="007_041" x="1590.400000" y="9315.200000" type="priority" />
<node id="007_042" x="1590.400000" y="9542.400000" type="priority" />
<node id="007_043" x="1590.400000" y="9769.600000" type="priority" />
<node id="007_044" x="1590.400000" y="9996.800000" type="priority" />
<node id="007_045" x="1590.400000" y="10224.000000" type="priority" />
<node id="007_046" x="1590.400000" y="10451.200000" type="priority" />
<node id="007_047" x="1590.400000" y="10678.400000" type="priority" />
<node id="007_048" x="1590.400000" y="10905.600000" type="priority" />
<node id="007_049" x="1590.400000" y="11132.800000" type="priority" />
<node id="007_050" x="1590.400000" y="11360.000000" type="priority" />
<node id="007_051" x="1590.400000" y="11873.600000" type="priority" />
<node id="008_000" x="1817.600000" y="-286.400000" type="priority" />
<node id="008_001" x="1817.600000" y="227.200000" type="priority" />
<node id="008_002" x="1817.600000" y="454.400000" type="priority" />
<node id="008_003" x="1817.600000" y="681.600000" type="priority" />
<node id="008_004" x="1817.600000" y="908.800000" type="priority" />
<node id="008_005" x="1817.600000" y="1136.000000" type="priority" />
<node id="008_006" x="1817.600000" y="1363.200000" type="priority" />
<node id="008_007" x="1817.600000" y="1590.400000" type="priority" />
<node id="008_008" x="1817.600000" y="1817.600000" type="priority" />
<node id="008_009" x="1817.600000" y="2044.800000" type="priority" />
<node id="008_010" x="1817.600000" y="2272.000000" type="priority" />
<node id="008_011" x="1817.600000" y="2499.200000" type="priority" />
<node id="008_012" x="1817.600000" y="2726.400000" type="priority" />
<node id="008_013" x="1817.600000" y="2953.600000" type="priority" />
<node id="008_014" x="1817.600000" y="3180.800000" type="priority" />
<node id="008_015" x="1817.600000" y="3408.000000" type="priority" />
<node id="008_016" x="1817.600000" y="3635.200000" type="priority" />