<edges>
<edge id="001_001_1" from="000_001" to="001_001" priority="3" numLanes="3" speed= "11.18" width="3.20"/>
<edge id="001_001_2" from="001_002" to="001_001" priority="3" numLanes="3" speed= "11.18" width="3.20"/>
<edge id="001_001_3" from="002_001" to="001_001" priority="3" numLanes="3" speed= "11.18" width="3.20"/>
<edge id="001_001_4" from="001_000" to="001_001" priority="3" numLanes="3" speed= "11.18" width="3.20"/>
<edge id="002_001_1" from="001_001" to="002_001" priority="3" numLanes="3" speed= "11.18" width="3.20"/>
<edge id="002_001_2" from="002_002" to="002_001" priority="3" numLanes="3" speed= "11.18" width="3.20"/>
<edge id="002_001_3" from="003_001" to="002_001" priority="3" numLanes="3" speed= "11.18" width="3.20"/>
<edge id="002_001_4" from="002_000" to="002_001" priority="3" numLanes="3" speed= "11.18" width="3.20"/>
<edge id="003_001_1" from="002_001" to="003_001" priority="3" numLanes="3" speed= "11.18" width="3.20"/>
<edge id="003_001_2" from="003_002" to="003_001" priority="3" numLanes="3" speed= "11.18" width="3.20"/>
<edge id="003_001_3" from="004_001" to="003_001" priority="3" numLanes="3" speed= "11.18" width="3.20"/>
<edge id="003_001_4" from="003_000" to="003_001" priority="3" numLanes="3" speed= "11.18" width="3.20"/>
<edge id="004_001_1" from="003_001" to="004_001" priority="3" numLanes="3" speed= "11.18" width="3.20"/>
<edge id="004_001_2" from="004_002" to="004_001" priority="3" numLanes="3" speed= "11.18" width="3.20"/>
<edge id="004_001_3" from="005_001" to="004_001" priority="3" numLanes="3" speed= "11.18" width="3.20"/>
<edge id="004_001_4" from="004_000" to="004_001" priority="3" numLanes="3" speed= "11.18" width="3.20"/>
<edge id="005_001_1" from="004_001" to="005_001" priority="3" numLanes="3" speed= "11.18" width="3.20"/>
<edge id="005_001_2" from="005_002" to="005_001" priority="3" numLanes="3" speed= "11.18" width="3.20"/>
<edge id="005_001_3" from="006_001" to="005_001" priority="3" numLanes="3" speed= "11.18" width="3.20"/>
<edge id="005_001_4" from="005_000" to="005_001" priority="3" numLanes="3" speed= "11.18" width="3.20"/>
<edge id="006_001_1" from="005_001" to="006_001" priority="3" numLanes="3" speed= "11.18" width="3.20"/>
<edge id="006_001_2" from="006_002" to="006_001" priority="3" numLanes="3" speed= "11.18" width="3.20"/>
<edge id="006_001_3" from="007_001" to="006_001" priority="3" numLanes="3" speed= "11.18" width="3.20"/>
<edge id="006_001_4" from="006_000" to="006_001" priority="3" numLanes="3" speed= "11.18" width="3.20"/>
<edge id="007_001_1" from="006_001" to="007_001" priority="3" numLanes="3" speed= "11.18" width="3.20"/>
<edge id="007_001_2" from="007_002" to="007_001" priority="3" numLanes="3" speed= "11.18" width="3.20"/>
<edge id="007_001_3" from="008_001" to="007_001" priority="3" numLanes="3" speed= "11.18" width="3.20"/>
<edge id="007_001_4" from="007_000" to="007_001" priority="3" numLanes="3" speed= "11.18" width="3.20"/>
<edge id="008_001_1" from="007_001" to="008_001" priority="3" numLanes="3" speed= "11.18" width="3.20"/>
<edge id="008_001_2" from="008_002" to="008_001" priority="3" numLanes="3" speed= "11.18" width="3.20"/>
<edge id="008_001_3" from="009_001" to="008_001" priority="3" numLanes="3" speed= "11.18" width="3.20"/>
<edge id="008_001_4" from="008_000" to="008_001" priority="3" numLanes="3" speed= "11.18" width="3.20"/>
<edge id="009_001_1" from="008_001" to="009_001" priority="3" numLanes="3" speed= "11.18" width="3.20"/>
<edge id="009_001_2" from="009_002" to="009_001" priority="3" numLanes="3" speed= "11.18" width="3.20"/>
<edge id="009_001_3" from="010_001" to="009_001" priority="3" numLanes="3" speed= "11.18" width="3.20"/>
<edge id="009_001_4" from="009_000" to="009_001" priority="3" numLanes="3" speed= "11.18" width="3.20"/>
<edge id="010_001_1" from="009_001" to="010_001" priority="3" numLanes="3" speed= "11.18" width="3.20"/>
<edge id="010_001_2" from="010_002" to="010_001" priority="3" numLanes="3" speed= "11.18" width="3.20"/>
<edge id="010_001_3" from="011_001" to="010_001" priority="3" numLanes="3" speed= "11.18" width="3.20"/>
<edge id="010_001_4" from="010_000" to="010_001" priority="3" numLanes="3" speed= "11.18" width="3.20"/>
<edge id="001_002_1" from="000_002" to="001_002" priority="3" numLanes="3" speed= "11.18" width="3.20"/>
<edge id="001_002_2" from="001_003" to="001_002" priority="3" numLanes="3" speed= "11.18" width="3.20"/>
<edge id="001_002_3" from="002_002" to="001_002" priority="3" numLanes="3" speed= "11.18" width="3.20"/>
<edge id="001_002_4" from="001_001" to="001_002" priority="3" numLanes="3" speed= "11.18" width="3.20"/>
<edge id="002_002_1" from="001_002" to="002_002" priority="3" numLanes="3" speed= "11.18" width="3.20"/>
<edge id="002_002_2" from="002_003" to="002_002" priority="3" numLanes="3" speed= "11.18" width="3.20"/>
<edge id="002_002_3" from="003_002" to="002_002" priority="3" numLanes="3" speed= "11.18" width="3.20"/>
<edge id="002_002_4" from="002_001" to="002_002" priority="3" numLanes="3" speed= "11.18" width="3.20"/>
<edge id="003_002_1" from="002_002" to="003_002" priority="3" numLanes="3" speed= "11.18" width="3.20"/>
<edge id="003_002_2" from="003_003" to="003_002" priority="3" numLanes="3" speed= "11.18" width="3.20"/>
<edge id="003_002_3" from="004_002" to="003_002" priority="3" numLanes="3" speed= "11.18" width="3.20"/>
<edge id="003_002_4" from="003_001" to="003_002" priority="3" numLanes="3" speed= "11.18" width="3.20"/>
<edge id="004_002_1" from="003_002" to="004_002" priority="3" numLanes="3" speed= "11.18" width="3.20"/>
<edge id="004_002_2" from="004_003" to="004_002" priority="3" numLanes="3" speed= "11.18" width="3.20"/>
<edge id="004_002_3" from="005_002" to="004_002" priority="3" numLanes="3" speed= "11.18" width="3.20"/>
<edge id="004_002_4" from="004_001" to="004_002" priority="3" numLanes="3" speed= "11.18" width="3.20"/>
<edge id="005_002_1" from="004_002" to="005_002" priority="3" numLanes="3" speed= "11.18" width="3.20"/>
<edge id="005_002_2" from="005_003" to="005_002" priority="3" numLanes="3" speed= "11.18" width="3.20"/>
<edge id="005_002_3" from="006_002" to="005_002" priority="3" numLanes="3" speed= "11.18" width="3.20"/>
<edge id="005_002_4" from="005_001" to="005_002" priority="3" numLanes="3" speed= "11.18" width="3.20"/>
<edge id="006_002_1" from="005_002" to="006_002" priority="3" numLanes="3" speed= "11.18" width="3.20"/>
<edge id="006_002_2" from="006_003" to="006_002" priority="3" numLanes="3" speed= "11.18" width="3.20"/>
<edge id="006_002_3" from="007_002" to="006_002" priority="3" numLanes="3" speed= "11.18" width="3.20"/>
<edge id="006_002_4" from="006_001" to="006_002" priority="3" numLanes="3" speed= "11.18" width="3.20"/>
<edge id="007_002_1" from="006_002" to="007_002" priority="3" numLanes="3" speed= "11.18" width="3.20"/>
<edge id="007_002_2" from="007_003" to="007_002" priority="3" numLanes="3" speed= "11.18" width="3.20"/>
<edge id="007_002_3" from="008_002" to="007_002" priority="3" numLanes="3" speed= "11.18" width="3.20"/>
<edge id="007_002_4" from="007_001" to="007_002" priority="3" numLanes="3" speed= "11.18" width="3.20"/>
<edge id="008_002_1" from="007_002" to="008_002" priority="3" numLanes="3" speed= "11.18" width="3.20"/>
<edge id="008_002_2" from="008_003" to="008_002" priority="3" numLanes="3" speed= "11.18" width="3.20"/>
<edge id="008_002_3" from="009_002" to="008_002" priority="3" numLanes="3" speed= "11.18" width="3.20"/>
<edge id="008_002_4" from="008_001" to="008_002" priority="3" numLanes="3" speed= "11.18" width="3.20"/>
<edge id="009_002_1" from="008_002" to="009_002" priority="3" numLanes="3" speed= "11.18" width="3.20"/>
<edge id="009_002_2" from="009_003" to="009_002" priority="3" numLanes="3" speed= "11.18" width="3.20"/>
<edge id="009_002_3" from="010_002" to="009_002" priority="3" numLanes="3" speed= "11.18" width="3.20"/>
<edge id="009_002_4" from="009_001" to="009_002" priority="3" numLanes="3" speed= "11.18" width="3.20"/>
<edge id="010_002_1" from="009_002" to="010_002" priority="3" numLanes="3" speed= "11.18" width="3.20"/>
<edge id="010_002_2" from="010_003" to="010_002" priority="3" numLanes="3" speed= "11.18" width="3.20"/>
<edge id="010_002_3" from="011_002" to="010_002" priority="3" numLanes="3" speed= "11.18" width="3.20"/>
<edge id="010_002_4" from="010_001" to="010_002" priority="3" numLanes="3" speed= "11.18" width="3.20"/>
<edge id="001_003_1" from="000_003" to="001_003" priority="3" numLanes="3" speed= "11.18" width="3.20"/>
<edge id="001_003_2" from="001_004" to="001_003" priority="3" numLanes="3" speed= "11.18" width="3.20"/>
<edge id="001_003_3" from="002_003" to="001_003" priority="3" numLanes="3" speed= "11.18" width="3.20"/>
<edge id="001_003_4" from="001_002" to="001_003" priority="3" numLanes="3" speed= "11.18" width="3.20"/>
<edge id="002_003_1" from="001_003" to="002_003" priority="3" numLanes="3" speed= "11.18" width="3.20"/>
<edge id="002_003_2" from="002_004" to="002_003" priority="3" numLanes="3" speed= "11.18" width="3.20"/>
<edge id="002_003_3" from="003_003" to="002_003" priority="3" numLanes="3" speed= "11.18" width="3.20"/>
<edge id="002_003_4" from="002_002" to="002_003" priority="3" numLanes="3" speed= "11.18" width="3.20"/>
<edge id="003_003_1" from="002_003" to="003_003" priority="3" numLanes="3" speed= "11.18" width="3.20"/>
<edge id="003_003_2" from="003_004" to="003_003" priority="3" numLanes="3" speed= "11.18" width="3.20"/>
<edge id="003_003_3" from="004_003" to="003_003" priority="3" numLanes="3" speed= "11.18" width="3.20"/>
<edge id="003_003_4" from="003_002" to="003_003" priority="3" numLanes="3" speed= "11.18" width="3.20"/>
<edge id="004_003_1" from="003_003" to="004_003" priority="3" numLanes="3" speed= "11.18" width="3.20"/>
<edge id="004_003_2" from="004_004" to="004_003" priority="3" numLanes="3" speed= "11.18" width="3.20"/>
<edge id="004_003_3" from="005_003" to="004_003" priority="3" numLanes="3" speed= "11.18" width="3.20"/>
<edge id="004_003_4" from="004_002" to="004_003" priority="3" numLanes="3" speed= "11.18" width="3.20"/>
<edge id="005_003_1" from="004_003" to="005_003" priority="3" numLanes="3" speed= "11.18" width="3.20"/>
<edge id="005_003_2" from="005_004" to="005_003" priority="3" numLanes="3" speed= "11.18" width="3.20"/>
<edge id="005_003_3" from="006_003" to="005_003" priority="3" numLanes="3" speed= "11.18" width="3.20"/>
<edge id="005_003_4" from="005_002" to="005_003" priority="3" numLanes="3" speed= "11.18" width="3.20"/>
<edge id="006_003_1" from="005_003" to="006_003" priority="3" numLanes="3" speed= "11.18" width="3.20"/>
<edge id="006_003_2" from="006_004" to="006_003" priority="3" numLanes="3" speed= "11.18" width="3.20"/>
<edge id="006_003_3" from="007_003" to="006_003" priority="3" numLanes="3" speed= "11.18" width="3.20"/>
<edge id="006_003_4" from="006_002" to="006_003" priority="3" numLanes="3" speed= "11.18" width="3.20"/>
<edge id="007_003_1" from="006_003" to="007_003" priority="3" numLanes="3" speed= "11.18" width="3.20"/>
<edge id="007_003_2" from="007_004" to="007_003" priority="3" numLanes="3" speed= "11.18" width="3.20"/>
<edge id="007_003_3" from="008_003" to="007_003" priority="3" numLanes="3" speed= "11.18" width="3.20"/>
<edge id="007_003_4" from="007_002" to="007_003" priority="3" numLanes="3" speed= "11.18" width="3.20"/>
<edge id="008_003_1" from="007_003" to="008_003" priority="3" numLanes="3" speed= "11.18" width="3.20"/>
<edge id="008_003_2" from="008_004" to="008_003" priority="3" numLanes="3" speed= "11.18" width="3.20"/>
<edge id="008_003_3" from="009_003" to="008_003" priority="3" numLanes="3" speed= "11.18" width="3.20"/>
<edge id="008_003_4" from="008_002" to="008_003" priority="3" numLanes="3" speed= "11.18" width="3.20"/>
<edge id="009_003_1" from="008_003" to="009_003" priority="3" numLanes="3" speed= "11.18" width="3.20"/>
<edge id="009_003_2" from="009_004" to="009_003" priority="3" numLanes="3" speed= "11.18" width="3.20"/>
<edge id="009_003_3" from="010_003" to="009_003" priority="3" numLanes="3" speed= "11.18" width="3.20"/>
<edge id="009_003_4" from="009_002" to="009_003" priority="3" numLanes="3" speed= "11.18" width="3.20"/>
<edge id="010_003_1" from="009_003" to="010_003" priority="3" numLanes="3" speed= "11.18" width="3.20"/>
<edge id="010_003_2" from="010_004" to="010_003" priority="3" numLanes="3" speed= "11.18" width="3.20"/>
<edge id="010_003_3" from="011_003" to="010_003" priority="3" numLanes="3" speed= "11.18" width="3.20"/>
<edge id="010_003_4" from="010_002" to="010_003" priority="3" numLanes="3" speed= "11.18" width="3.20"/>
<edge id="001_004_1" from="000_004" to="001_004" priority="3" numLanes="3" speed= "11.18" width="3.20"/>
<edge id="001_004_2" from="001_005" to="001_004" priority="3" numLanes="3" speed= "11.18" width="3.20"/>
<edge id="001_004_3" from="002_004" to="001_004" priority="3" numLanes="3" speed= "11.18" width="3.20"/>
<edge id="001_004_4" from="001_003" to="001_004" priority="3" numLanes="3" speed= "11.18" width="3.20"/>
<edge id="002_004_1" from="001_004" to="002_004" priority="3" numLanes="3" speed= "11.18" width="3.20"/>
<edge id="002_004_2" from="002_005" to="002_004" priority="3" numLanes="3" speed= "11.18" width="3.20"/>
<edge id="002_004_3" from="003_004" to="002_004" priority="3" numLanes="3" speed= "11.18" width="3.20"/>
<edge id="002_004_4" from="002_003" to="002_004" priority="3" numLanes="3" speed= "11.18" width="3.20"/>
<edge id="003_004_1" from="002_004" to="003_004" priority="3" numLanes="3" speed= "11.18" width="3.20"/>
<edge id="003_004_2" from="003_005" to="003_004" priority="3" numLanes="3" speed= "11.18" width="3.20"/>
<edge id="003_004_3" from="004_004" to="003_004" priority="3" numLanes="3" speed= "11.18" width="3.20"/>
<edge id="003_004_4" from="003_003" to="003_004" priority="3" numLanes="3" speed= "11.18" width="3.20"/>
<edge id="004_004_1" from="003_004" to="004_004" priority="3" numLanes="3" speed= "11.18" width="3.20"/>
<edge id="004_004_2" from="004_005" to="004_004" priority="3" numLanes="3" speed= "11.18" width="3.20"/>
<edge id="004_004_3" from="005_004" to="004_004" priority="3" numLanes="3" speed= "11.18" width="3.20"/>
<edge id="004_004_4" from="004_003" to="004_004" priority="3" numLanes="3" speed= "11.18" width="3.20"/>
<edge id="005_004_1" from="004_004" to="005_004" priority="3" numLanes="3" speed= "11.18" width="3.20"/>
<edge id="005_004_2" from="005_005" to="005_004" priority="3" numLanes="3" speed= "11.18" width="3.20"/>
<edge id="005_004_3" from="006_004" to="005_004" priority="3" numLanes="3" speed= "11.18" width="3.20"/>
<edge id="005_004_4" from="005_003" to="005_004" priority="3" numLanes="3" speed= "11.18" width="3.20"/>
<edge id="006_004_1" from="005_004" to="006_004" priority="3" numLanes="3" speed= "11.18" width="3.20"/>
<edge id="006_004_2" from="006_005" to="006_004" priority="3" numLanes="3" speed= "11.18" width="3.20"/>
<edge id="006_004_3" from="007_004" to="006_004" priority="3" numLanes="3" speed= "11.18" width="3.20"/>
<edge id="006_004_4" from="006_003" to="006_004" priority="3" numLanes="3" speed= "11.18" width="3.20"/>
<edge id="007_004_1" from="006_004" to="007_004" priority="3" numLanes="3" speed= "11.18" width="3.20"/>
<edge id="007_004_2" from="007_005" to="007_004" priority="3" numLanes="3" speed= "11.18" width="3.20"/>
<edge id="007_004_3" from="008_004" to="007_004" priority="3" numLanes="3" speed= "11.18" width="3.20"/>
<edge id="007_004_4" from="007_003" to="007_004" priority="3" numLanes="3" speed= "11.18" width="3.20"/>
<edge id="008_004_1" from="007_004" to="008_004" priority="3" numLanes="3" speed= "11.18" width="3.20"/>
<edge id="008_004_2" from="008_005" to="008_004" priority="3" numLanes="3" speed= "11.18" width="3.20"/>
<edge id="008_004_3" from="009_004" to="008_004" priority="3" numLanes="3" speed= "11.18" width="3.20"/>
<edge id="008_004_4" from="008_003" to="008_004" priority="3" numLanes="3" speed= "11.18" width="3.20"/>
<edge id="009_004_1" from="008_004" to="009_004" priority="3" numLanes="3" speed= "11.18" width="3.20"/>
<edge id="009_004_2" from="009_005" to="009_004" priority="3" numLanes="3" speed= "11.18" width="3.20"/>
<edge id="009_004_3" from="010_004" to="009_004" priority="3" numLanes="3" speed= "11.18" width="3.20"/>
<edge id="009_004_4" from="009_003" to="009_004" priority="3" numLanes="3" speed= "11.18" width="3.20"/>
<edge id="010_004_1" from="009_004" to="010_004" priority="3" numLanes="3" speed= "11.18" width="3.20"/>
<edge id="010_004_2" from="010_005" to="010_004" priority="3" numLanes="3" speed= "11.18" width="3.20"/>
<edge id="010_004_3" from="011_004" to="010_004" priority="3" numLanes="3" speed= "11.18" width="3.20"/>
<edge id="010_004_4" from="010_003" to="010_004" priority="3" numLanes="3" speed= "11.18" width="3.20"/>
<edge id="001_005_1" from="000_005" to="001_005" priority="3" numLanes="3" speed= "11.18" width="3.20"/>
<edge id="001_005_2" from="001_006" to="001_005" priority="3" numLanes="3" speed= "11.18" width="3.20"/>
<edge id="001_005_3" from="002_005" to="001_005" priority="3" numLanes="3" speed= "11.18" width="3.20"/>
<edge id="001_005_4" from="001_004" to="001_005" priority="3" numLanes="3" speed= "11.18" width="3.20"/>
<edge id="002_005_1" from="001_005" to="002_005" priority="3" numLanes="3" speed= "11.18" width="3.20"/>
<edge id="002_005_2" from="002_006" to="002_005" priority="3" numLanes="3" speed= "11.18" width="3.20"/>
<edge id="002_005_3" from="003_005" to="002_005" priority="3" numLanes="3" speed= "11.18" width="3.20"/>
<edge id="002_005_4" from="002_004" to="002_005" priority="3" numLanes="3" speed= "11.18" width="3.20"/>
<edge id="003_005_1" from="002_005" to="003_005" priority="3" numLanes="3" speed= "11.18" width="3.20"/>
<edge id="003_005_2" from="003_006" to="003_005" priority="3" numLanes="3" speed= "11.18" width="3.20"/>
<edge id="003_005_3" from="004_005" to="003_005" priority="3" numLanes="3" speed= "11.18" width="3.20"/>
<edge id="003_005_4" from="003_004" to="003_005" priority="3" numLanes="3" speed= "11.18" width="3.20"/>
<edge id="004_005_1" from="003_005" to="004_005" priority="3" numLanes="3" speed= "11.18" width="3.20"/>
<edge id="004_005_2" from="004_006" to="004_005" priority="3" numLanes="3" speed= "11.18" width="3.20"/>
<edge id="004_005_3" from="005_005" to="004_005" priority="3" numLanes="3" speed= "11.18" width="3.20"/>
<edge id="004_005_4" from="004_004" to="004_005" priority="3" numLanes="3" speed= "11.18" width="3.20"/>
<edge id="005_005_1" from="004_005" to="005_005" priority="3" numLanes="3" speed= "11.18" width="3.20"/>
<edge id="005_005_2" from="005_006" to="005_005" priority="3" numLanes="3" speed= "11.18" width="3.20"/>
<edge id="005_005_3" from="006_005" to="005_005" priority="3" numLanes="3" speed= "11.18" width="3.20"/>
<edge id="005_005_4" from="005_004" to="005_005" priority="3" numLanes="3" speed= "11.18" width="3.20"/>
<edge id="006_005_1" from="005_005" to="006_005" priority="3" numLanes="3" speed= "11.18" width="3.20"/>
<edge id="006_005_2" from="006_006" to="006_005" priority="3" numLanes="3" speed= "11.18" width="3.20"/>
<edge id="006_005_3" from="007_005" to="006_005" priority="3" numLanes="3" speed= "11.18" width="3.20"/>
<edge id="006_005_4" from="006_004" to="006_005" priority="3" numLanes="3" speed= "11.18" width="3.20"/>
<edge id="007_005_1" from="006_005" to="007_005" priority="3" numLanes="3" speed= "11.18" width="3.20"/>
<edge id="007_005_2" from="007_006" to="007_005" priority="3" numLanes="3" speed= "11.18" width="3.20"/>
<edge id="007_005_3" from="008_005" to="007_005" priority="3" numLanes="3" speed= "11.18" width="3.20"/>
<edge id="007_005_4" from="007_004" to="007_005" priority="3" numLanes="3" speed= "11.18" width="3.20"/>
<edge id="008_005_1" from="007_005" to="008_005" priority="3" numLanes="3" speed= "11.18" width="3.20"/>
<edge id="008_005_2" from="008_006" to="008_005" priority="3" numLanes="3" speed= "11.18" width="3.20"/>
<edge id="008_005_3" from="009_005" to="008_005" priority="3" numLanes="3" speed= "11.18" width="3.20"/>
<edge id="008_005_4" from="008_004" to="008_005" priority="3" numLanes="3" speed= "11.18" width="3.20"/>
<edge id="009_005_1" from="008_005" to="009_005" priority="3" numLanes="3" speed= "11.18" width="3.20"/>
<edge id="009_005_2" from="009_006" to="009_005" priority="3" numLanes="3" speed= "11.18" width="3.20"/>
<edge id="009_005_3" from="010_005" to="009_005" priority="3" numLanes="3" speed= "11.18" width="3.20"/>
<edge id="009_005_4" from="009_004" to="009_005" priority="3" numLanes="3" speed= "11.18" width="3.20"/>
<edge id="010_005_1" from="009_005" to="010_005" priority="3" numLanes="3" speed= "11.18" width="3.20"/>
<edge id="010_005_2" from="010_006" to="010_005" priority="3" numLanes="3" speed= "11.18" width="3.20"/>
<edge id="010_005_3" from="011_005" to="010_005" priority="3" numLanes="3" speed= "11.18" width="3.20"/>
<edge id="010_005_4" from="010_004" to="010_005" priority="3" numLanes="3" speed= "11.18" width="3.20"/>
<edge id="001_006_1" from="000_006" to="001_006" priority="3" numLanes="3" speed= "11.18" width="3.20"/>
<edge id="001_006_2" from="001_007" to="001_006" priority="3" numLanes="3" speed= "11.18" width="3.20"/>
<edge id="001_006_3" from="002_006" to="001_006" priority="3" numLanes="3" speed= "11.18" width="3.20"/>
<edge id="001_006_4" from="001_005" to="001_006" priority="3" numLanes="3" speed= "11.18" width="3.20"/>
<edge id="002_006_1" from="001_006" to="002_006" priority="3" numLanes="3" speed= "11.18" width="3.20"/>
<edge id="002_006_2" from="002_007" to="002_006" priority="3" numLanes="3" speed= "11.18" width="3.20"/>
<edge id="002_006_3" from="003_006" to="002_006" priority="3" numLanes="3" speed= "11.18" width="3.20"/>
<edge id="002_006_4" from="002_005" to="002_006" priority="3" numLanes="3" speed= "11.18" width="3.20"/>
<edge id="003_006_1" from="002_006" to="003_006" priority="3" numLanes="3" speed= "11.18" width="3.20"/>
<edge id="003_006_2" from="003_007" to="003_006" priority="3" numLanes="3" speed= "11.18" width="3.20"/>
<edge id="003_006_3" from="004_006" to="003_006" priority="3" numLanes="3" speed= "11.18" width="3.20"/>
<edge id="003_006_4" from="003_005" to="003_006" priority="3" numLanes="3" speed= "11.18" width="3.20"/>
<edge id="004_006_1" from="003_006" to="004_006" priority="3" numLanes="3" speed= "11.18" width="3.20"/>
<edge id="004_006_2" from="004_007" to="004_006" priority="3" numLanes="3" speed= "11.18" width="3.20"/>
<edge id="004_006_3" from="005_006" to="004_006" priority="3" numLanes="3" speed= "11.18" width="3.20"/>
<edge id="004_006_4" from="004_005" to="004_006" priority="3" numLanes="3" speed= "11.18" width="3.20"/>
<edge id="005_006_1" from="004_006" to="005_006" priority="3" numLanes="3" speed= "11.18" width="3.20"/>
<edge id="005_006_2" from="005_007" to="005_006" priority="3" numLanes="3" speed= "11.18" width="3.20"/>
<edge id="005_006_3" from="006_006" to="005_006" priority="3" numLanes="3" speed= "11.18" width="3.20"/>
<edge id="005_006_4" from="005_005" to="005_006" priority="3" numLanes="3" speed= "11.18" width="3.20"/>
<edge id="006_006_1" from="005_006" to="006_006" priority="3" numLanes="3" speed= "11.18" width="3.20"/>
<edge id="006_006_2" from="006_007" to="006_006" priority="3" numLanes="3" speed= "11.18" width="3.20"/>
<edge id="006_006_3" from="007_006" to="006_006" priority="3" numLanes="3" speed= "11.18" width="3.20"/>
<edge id="006_006_4" from="006_005" to="006_006" priority="3" numLanes="3" speed= "11.18" width="3.20"/>
<edge id="007_006_1" from="006_006" to="007_006" priority="3" numLanes="3" speed= "11.18" width="3.20"/>
<edge id="007_006_2" from="007_007" to="007_006" priority="3" numLanes="3" speed= "11.18" width="3.20"/>
<edge id="007_006_3" from="008_006" to="007_006" priority="3" numLanes="3" speed= "11.18" width="3.20"/>
<edge id="007_006_4" from="007_005" to="007_006" priority="3" numLanes="3" speed= "11.18" width="3.20"/>
<edge id="008_006_1" from="007_006" to="008_006" priority="3" numLanes="3" speed= "11.18" width="3.20"/>
<edge id="008_006_2" from="008_007" to="008_006" priority="3" numLanes="3" speed= "11.18" width="3.20"/>
<edge id="008_006_3" from="009_006" to="008_006" priority="3" numLanes="3" speed= "11.18" width="3.20"/>
<edge id="008_006_4" from="008_005" to="008_006" priority="3" numLanes="3" speed= "11.18" width="3.20"/>
<edge id="009_006_1" from="008_006" to="009_006" priority="3" numLanes="3" speed= "11.18" width="3.20"/>
<edge id="009_006_2" from="009_007" to="009_006" priority="3" numLanes="3" speed= "11.18" width="3.20"/>
<edge id="009_006_3" from="010_006" to="009_006" priority="3" numLanes="3" speed= "11.18" width="3.20"/>
<edge id="009_006_4" from="009_005" to="009_006" priority="3" numLanes="3" speed= "11.18" width="3.20"/>
<edge id="010_006_1" from="009_006" to="010_006" priority="3" numLanes="3" speed= "11.18" width="3.20"/>
<edge id="010_006_2" from="010_007" to="010_006" priority="3" numLanes="3" speed= "11.18" width="3.20"/>
<edge id="010_006_3" from="011_006" to="010_006" priority="3" numLanes="3" speed= "11.18" width="3.20"/>
<edge id="010_006_4" from="010_005" to="010_006" priority="3" numLanes="3" speed= "11.18" width="3.20"/>
<edge id="001_007_1" from="000_007" to="001_007" priority="3" numLanes="3" speed= "11.18" width="3.20"/>
<edge id="001_007_2" from="001_008" to="001_007" priority="3" numLanes="3" speed= "11.18" width="3.20"/>
<edge id="001_007_3" from="002_007" to="001_007" priority="3" numLanes="3" speed= "11.18" width="3.20"/>
<edge id="001_007_4" from="001_006" to="001_007" priority="3" numLanes="3" speed= "11.18" width="3.20"/>
<edge id="002_007_1" from="001_007" to="002_007" priority="3" numLanes="3" speed= "11.18" width="3.20"/>
<edge id="002_007_2" from="002_008" to="002_007" priority="3" numLanes="3" speed= "11.18" width="3.20"/>
<edge id="002_007_3" from="003_007" to="002_007" priority="3" numLanes="3" speed= "11.18" width="3.20"/>
<edge id="002_007_4" from="002_006" to="002_007" priority="3" numLanes="3" speed= "11.18" width="3.20"/>
<edge id="003_007_1" from="002_007" to="003_007" priority="3" numLanes="3" speed= "11.18" width="3.20"/>
<edge id="003_007_2" from="003_008" to="003_007" priority="3" numLanes="3" speed= "11.18" width="3.20"/>
<edge id="003_007_3" from="004_007" to="003_007" priority="3" numLanes="3" speed= "11.18" width="3.20"/>
<edge id="003_007_4" from="003_006" to="003_007" priority="3" numLanes="3" speed= "11.18" width="3.20"/>
<edge id="004_007_1" from="003_007" to="004_007" priority="3" numLanes="3" speed= "11.18" width="3.20"/>
<edge id="004_007_2" from="004_008" to="004_007" priority="3" numLanes="3" speed= "11.18" width="3.20"/>
<edge id="004_007_3" from="005_007" to="004_007" priority="3" numLanes="3" speed= "11.18" width="3.20"/>
<edge id="004_007_4" from="004_006" to="004_007" priority="3" numLanes="3" speed= "11.18" width="3.20"/>
<edge id="005_007_1" from="004_007" to="005_007" priority="3" numLanes="3" speed= "11.18" width="3.20"/>
<edge id="005_007_2" from="005_008" to="005_007" priority="3" numLanes="3" speed= "11.18" width="3.20"/>
<edge id="005_007_3" from="006_007" to="005_007" priority="3" numLanes="3" speed= "11.18" width="3.20"/>
<edge id="005_007_4" from="005_006" to="005_007" priority="3" numLanes="3" speed= "11.18" width="3.20"/>
<edge id="006_007_1" from="005_007" to="006_007" priority="3" numLanes="3" speed= "11.18" width="3.20"/>
<edge id="006_007_2" from="006_008" to="006_007" priority="3" numLanes="3" speed= "11.18" width="3.20"/>
<edge id="006_007_3" from="007_007" to="006_007" priority="3" numLanes="3" speed= "11.18" width="3.20"/>
<edge id="006_007_4" from="006_006" to="006_007" priority="3" numLanes="3" speed= "11.18" width="3.20"/>
<edge id="007_007_1" from="006_007" to="007_007" priority="3" numLanes="3" speed= "11.18" width="3.20"/>
<edge id="007_007_2" from="007_008" to="007_007" priority="3" numLanes="3" speed= "11.18" width="3.20"/>
<edge id="007_007_3" from="008_007" to="007_007" priority="3" numLanes="3" speed= "11.18" width="3.20"/>
<edge id="007_007_4" from="007_006" to="007_007" priority="3" numLanes="3" speed= "11.18" width="3.20"/>
<edge id="008_007_1" from="007_007" to="008_007" priority="3" numLanes="3" speed= "11.18" width="3.20"/>
<edge id="008_007_2" from="008_008" to="008_007" priority="3" numLanes="3" speed= "11.18" width="3.20"/>
<edge id="008_007_3" from="009_007" to="008_007" priority="3" numLanes="3" speed= "11.18" width="3.20"/>
<edge id="008_007_4" from="008_006" to="008_007" priority="3" numLanes="3" speed= "11.18" width="3.20"/>
<edge id="009_007_1" from="008_007" to="009_007" priority="3" numLanes="3" speed= "11.18" width="3.20"/>
<edge id="009_007_2" from="009_008" to="009_007" priority="3" numLanes="3" speed= "11.18" width="3.20"/>
<edge id="009_007_3" from="010_007" to="009_007" priority="3" numLanes="3" speed= "11.18" width="3.20"/>
<edge id="009_007_4" from="009_006" to="009_007" priority="3" numLanes="3" speed= "11.18" width="3.20"/>
<edge id="010_007_1" from="009_007" to="010_007" priority="3" numLanes="3" speed= "11.18" width="3.20"/>
<edge id="010_007_2" from="010_008" to="010_007" priority="3" numLanes="3" speed= "11.18" width="3.20"/>
<edge id="010_007_3" from="011_007" to="010_007" priority="3" numLanes="3" speed= "11.18" width="3.20"/>
<edge id="010_007_4" from="010_006" to="010_007" priority="3" numLanes="3" speed= "11.18" width="3.20"/>
<edge id="001_008_1" from="000_008" to="001_008" priority="3" numLanes="3" speed= "11.18" width="3.20"/>
<edge id="001_008_2" from="001_009" to="001_008" priority="3" numLanes="3" speed= "11.18" width="3.20"/>
<edge id="001_008_3" from="002_008" to="001_008" priority="3" numLanes="3" speed= "11.18" width="3.20"/>
<edge id="001_008_4" from="001_007" to="001_008" priority="3" numLanes="3" speed= "11.18" width="3.20"/>
<edge id="002_008_1" from="001_008" to="002_008" priority="3" numLanes="3" speed= "11.18" width="3.20"/>