<edges>
<edge id="001_001_1" from="000_001" to="001_001" priority="3" numLanes="3" speed= "11.18" width="3.20"/>
<edge id="001_001_2" from="001_002" to="001_001" priority="3" numLanes="3" speed= "11.18" width="3.20"/>
<edge id="001_001_3" from="002_001" to="001_001" priority="3" numLanes="3" speed= "11.18" width="3.20"/>
<edge id="001_001_4" from="001_000" to="001_001" priority="3" numLanes="3" speed= "11.18" width="3.20"/>
<edge id="002_001_1" from="001_001" to="002_001" priority="3" numLanes="3" speed= "11.18" width="3.20"/>
<edge id="002_001_2" from="002_002" to="002_001" priority="3" numLanes="3" speed= "11.18" width="3.20"/>
<edge id="002_001_3" from="003_001" to="002_001" priority="3" numLanes="3" speed= "11.18" width="3.20"/>
<edge id="002_001_4" from="002_000" to="002_001" priority="3" numLanes="3" speed= "11.18" width="3.20"/>
<edge id="003_001_1" from="002_001" to="003_001" priority="3" numLanes="3" speed= "11.18" width="3.20"/>
<edge id="003_001_2" from="003_002" to="003_001" priority="3" numLanes="3" speed= "11.18" width="3.20"/>
<edge id="003_001_3" from="004_001" to="003_001" priority="3" numLanes="3" speed= "11.18" width="3.20"/>
<edge id="003_001_4" from="003_000" to="003_001" priority="3" numLanes="3" speed= "11.18" width="3.20"/>
<edge id="004_001_1" from="003_001" to="004_001" priority="3" numLanes="3" speed= "11.18" width="3.20"/>
<edge id="004_001_2" from="004_002" to="004_001" priority="3" numLanes="3" speed= "11.18" width="3.20"/>
<edge id="004_001_3" from="005_001" to="004_001" priority="3" numLanes="3" speed= "11.18" width="3.20"/>
<edge id="004_001_4" from="004_000" to="004_001" priority="3" numLanes="3" speed= "11.18" width="3.20"/>
<edge id="005_001_1" from="004_001" to="005_001" priority="3" numLanes="3" speed= "11.18" width="3.20"/>
<edge id="005_001_2" from="005_002" to="005_001" priority="3" numLanes="3" speed= "11.18" width="3.20"/>
<edge id="005_001_3" from="006_001" to="005_001" priority="3" numLanes="3" speed= "11.18" width="3.20"/>
<edge id="005_001_4" from="005_000" to="005_001" priority="3" numLanes="3" speed= "11.18" width="3.20"/>
<edge id="006_001_1" from="005_001" to="006_001" priority="3" numLanes="3" speed= "11.18" width="3.20"/>
<edge id="006_001_2" from="006_002" to="006_001" priority="3" numLanes="3" speed= "11.18" width="3.20"/>
<edge id="006_001_3" from="007_001" to="006_001" priority="3" numLanes="3" speed= "11.18" width="3.20"/>
<edge id="006_001_4" from="006_000" to="006_001" priority="3" numLanes="3" speed= "11.18" width="3.20"/>
<edge id="007_001_1" from="006_001" to="007_001" priority="3" numLanes="3" speed= "11.18" width="3.20"/>
<edge id="007_001_2" from="007_002" to="007_001" priority="3" numLanes="3" speed= "11.18" width="3.20"/>
<edge id="007_001_3" from="008_001" to="007_001" priority="3" numLanes="3" speed= "11.18" width="3.20"/>
<edge id="007_001_4" from="007_000" to="007_001" priority="3" numLanes="3" speed= "11.18" width="3.20"/>
<edge id="008_001_1" from="007_001" to="008_001" priority="3" numLanes="3" speed= "11.18" width="3.20"/>
<edge id="008_001_2" from="008_002" to="008_001" priority="3" numLanes="3" speed= "11.18" width="3.20"/>
<edge id="008_001_3" from="009_001" to="008_001" priority="3" numLanes="3" speed= "11.18" width="3.20"/>
<edge id="008_001_4" from="008_000" to="008_001" priority="3" numLanes="3" speed= "11.18" width="3.20"/>
<edge id="009_001_1" from="008_001" to="009_001" priority="3" numLanes="3" speed= "11.18" width="3.20"/>
<edge id="009_001_2" from="009_002" to="009_001" priority="3" numLanes="3" speed= "11.18" width="3.20"/>
<edge id="009_001_3" from="010_001" to="009_001" priority="3" numLanes="3" speed= "11.18" width="3.20"/>
<edge id="009_001_4" from="009_000" to="009_001" priority="3" numLanes="3" speed= "11.18" width="3.20"/>
<edge id="010_001_1" from="009_001" to="010_001" priority="3" numLanes="3" speed= "11.18" width="3.20"/>
<edge id="010_001_2" from="010_002" to="010_001" priority="3" numLanes="3" speed= "11.18" width="3.20"/>
<edge id="010_001_3" from="011_001" to="010_001" priority="3" numLanes="3" speed= "11.18" width="3.20"/>
<edge id="010_001_4" from="010_000" to="010_001" priority="3" numLanes="3" speed= "11.18" width="3.20"/>
<edge id="011_001_1" from="010_001" to="011_001" priority="3" numLanes="3" speed= "11.18" width="3.20"/>
<edge id="011_001_2" from="011_002" to="011_001" priority="3" numLanes="3" speed= "11.18" width="3.20"/>
<edge id="011_001_3" from="012_001" to="011_001" priority="3" numLanes="3" speed= "11.18" width="3.20"/>
<edge id="011_001_4" from="011_000" to="011_001" priority="3" numLanes="3" speed= "11.18" width="3.20"/>
<edge id="012_001_1" from="011_001" to="012_001" priority="3" numLanes="3" speed= "11.18" width="3.20"/>
<edge id="012_001_2" from="012_002" to="012_001" priority="3" numLanes="3" speed= "11.18" width="3.20"/>
<edge id="012_001_3" from="013_001" to="012_001" priority="3" numLanes="3" speed= "11.18" width="3.20"/>
<edge id="012_001_4" from="012_000" to="012_001" priority="3" numLanes="3" speed= "11.18" width="3.20"/>
<edge id="013_001_1" from="012_001" to="013_001" priority="3" numLanes="3" speed= "11.18" width="3.20"/>
<edge id="013_001_2" from="013_002" to="013_001" priority="3" numLanes="3" speed= "11.18" width="3.20"/>
<edge id="013_001_3" from="014_001" to="013_001" priority="3" numLanes="3" speed= "11.18" width="3.20"/>
<edge id="013_001_4" from="013_000" to="013_001" priority="3" numLanes="3" speed= "11.18" width="3.20"/>
<edge id="014_001_1" from="013_001" to="014_001" priority="3" numLanes="3" speed= "11.18" width="3.20"/>
<edge id="014_001_2" from="014_002" to="014_001" priority="3" numLanes="3" speed= "11.18" width="3.20"/>
<edge id="014_001_3" from="015_001" to="014_001" priority="3" numLanes="3" speed= "11.18" width="3.20"/>
<edge id="014_001_4" from="014_000" to="014_001" priority="3" numLanes="3" speed= "11.18" width="3.20"/>
<edge id="015_001_1" from="014_001" to="015_001" priority="3" numLanes="3" speed= "11.18" width="3.20"/>
<edge id="015_001_2" from="015_002" to="015_001" priority="3" numLanes="3" speed= "11.18" width="3.20"/>
<edge id="015_001_3" from="016_001" to="015_001" priority="3" numLanes="3" speed= "11.18" width="3.20"/>
<edge id="015_001_4" from="015_000" to="015_001" priority="3" numLanes="3" speed= "11.18" width="3.20"/>
<edge id="016_001_1" from="015_001" to="016_001" priority="3" numLanes="3" speed= "11.18" width="3.20"/>
<edge id="016_001_2" from="016_002" to="016_001" priority="3" numLanes="3" speed= "11.18" width="3.20"/>
<edge id="016_001_3" from="017_001" to="016_001" priority="3" numLanes="3" speed= "11.18" width="3.20"/>
<edge id="016_001_4" from="016_000" to="016_001" priority="3" numLanes="3" speed= "11.18" width="3.20"/>
<edge id="017_001_1" from="016_001" to="017_001" priority="3" numLanes="3" speed= "11.18" width="3.20"/>
<edge id="017_001_2" from="017_002" to="017_001" priority="3" numLanes="3" speed= "11.18" width="3.20"/>
<edge id="017_001_3" from="018_001" to="017_001" priority="3" numLanes="3" speed= "11.18" width="3.20"/>
<edge id="017_001_4" from="017_000" to="017_001" priority="3" numLanes="3" speed= "11.18" width="3.20"/>
<edge id="018_001_1" from="017_001" to="018_001" priority="3" numLanes="3" speed= "11.18" width="3.20"/>
<edge id="018_001_2" from="018_002" to="018_001" priority="3" numLanes="3" speed= "11.18" width="3.20"/>
<edge id="018_001_3" from="019_001" to="018_001" priority="3" numLanes="3" speed= "11.18" width="3.20"/>
<edge id="018_001_4" from="018_000" to="018_001" priority="3" numLanes="3" speed= "11.18" width="3.20"/>
<edge id="019_001_1" from="018_001" to="019_001" priority="3" numLanes="3" speed= "11.18" width="3.20"/>
<edge id="019_001_2" from="019_002" to="019_001" priority="3" numLanes="3" speed= "11.18" width="3.20"/>
<edge id="019_001_3" from="020_001" to="019_001" priority="3" numLanes="3" speed= "11.18" width="3.20"/>
<edge id="019_001_4" from="019_000" to="019_001" priority="3" numLanes="3" speed= "11.18" width="3.20"/>
<edge id="020_001_1" from="019_001" to="020_001" priority="3" numLanes="3" speed= "11.18" width="3.20"/>
<edge id="020_001_2" from="020_002" to="020_001" priority="3" numLanes="3" speed= "11.18" width="3.20"/>
<edge id="020_001_3" from="021_001" to="020_001" priority="3" numLanes="3" speed= "11.18" width="3.20"/>
<edge id="020_001_4" from="020_000" to="020_001" priority="3" numLanes="3" speed= "11.18" width="3.20"/>
<edge id="021_001_1" from="020_001" to="021_001" priority="3" numLanes="3" speed= "11.18" width="3.20"/>
<edge id="021_001_2" from="021_002" to="021_001" priority="3" numLanes="3" speed= "11.18" width="3.20"/>
<edge id="021_001_3" from="022_001" to="021_001" priority="3" numLanes="3" speed= "11.18" width="3.20"/>
<edge id="021_001_4" from="021_000" to="021_001" priority="3" numLanes="3" speed= "11.18" width="3.20"/>
<edge id="022_001_1" from="021_001" to="022_001" priority="3" numLanes="3" speed= "11.18" width="3.20"/>
<edge id="022_001_2" from="022_002" to="022_001" priority="3" numLanes="3" speed= "11.18" width="3.20"/>
<edge id="022_001_3" from="023_001" to="022_001" priority="3" numLanes="3" speed= "11.18" width="3.20"/>
<edge id="022_001_4" from="022_000" to="022_001" priority="3" numLanes="3" speed= "11.18" width="3.20"/>
<edge id="023_001_1" from="022_001" to="023_001" priority="3" numLanes="3" speed= "11.18" width="3.20"/>
<edge id="023_001_2" from="023_002" to="023_001" priority="3" numLanes="3" speed= "11.18" width="3.20"/>
<edge id="023_001_3" from="024_001" to="023_001" priority="3" numLanes="3" speed= "11.18" width="3.20"/>
<edge id="023_001_4" from="023_000" to="023_001" priority="3" numLanes="3" speed= "11.18" width="3.20"/>
<edge id="024_001_1" from="023_001" to="024_001" priority="3" numLanes="3" speed= "11.18" width="3.20"/>
<edge id="024_001_2" from="024_002" to="024_001" priority="3" numLanes="3" speed= "11.18" width="3.20"/>
<edge id="024_001_3" from="025_001" to="024_001" priority="3" numLanes="3" speed= "11.18" width="3.20"/>
<edge id="024_001_4" from="024_000" to="024_001" priority="3" numLanes="3" speed= "11.18" width="3.20"/>
<edge id="025_001_1" from="024_001" to="025_001" priority="3" numLanes="3" speed= "11.18" width="3.20"/>
<edge id="025_001_2" from="025_002" to="025_001" priority="3" numLanes="3" speed= "11.18" width="3.20"/>
<edge id="025_001_3" from="026_001" to="025_001" priority="3" numLanes="3" speed= "11.18" width="3.20"/>
<edge id="025_001_4" from="025_000" to="025_001" priority="3" numLanes="3" speed= "11.18" width="3.20"/>
<edge id="026_001_1" from="025_001" to="026_001" priority="3" numLanes="3" speed= "11.18" width="3.20"/>
<edge id="026_001_2" from="026_002" to="026_001" priority="3" numLanes="3" speed= "11.18" width="3.20"/>
<edge id="026_001_3" from="027_001" to="026_001" priority="3" numLanes="3" speed= "11.18" width="3.20"/>
<edge id="026_001_4" from="026_000" to="026_001" priority="3" numLanes="3" speed= "11.18" width="3.20"/>
<edge id="027_001_1" from="026_001" to="027_001" priority="3" numLanes="3" speed= "11.18" width="3.20"/>
<edge id="027_001_2" from="027_002" to="027_001" priority="3" numLanes="3" speed= "11.18" width="3.20"/>
<edge id="027_001_3" from="028_001" to="027_001" priority="3" numLanes="3" speed= "11.18" width="3.20"/>
<edge id="027_001_4" from="027_000" to="027_001" priority="3" numLanes="3" speed= "11.18" width="3.20"/>
<edge id="028_001_1" from="027_001" to="028_001" priority="3" numLanes="3" speed= "11.18" width="3.20"/>
<edge id="028_001_2" from="028_002" to="028_001" priority="3" numLanes="3" speed= "11.18" width="3.20"/>
<edge id="028_001_3" from="029_001" to="028_001" priority="3" numLanes="3" speed= "11.18" width="3.20"/>
<edge id="028_001_4" from="028_000" to="028_001" priority="3" numLanes="3" speed= "11.18" width="3.20"/>
<edge id="029_001_1" from="028_001" to="029_001" priority="3" numLanes="3" speed= "11.18" width="3.20"/>
<edge id="029_001_2" from="029_002" to="029_001" priority="3" numLanes="3" speed= "11.18" width="3.20"/>
<edge id="029_001_3" from="030_001" to="029_001" priority="3" numLanes="3" speed= "11.18" width="3.20"/>
<edge id="029_001_4" from="029_000" to="029_001" priority="3" numLanes="3" speed= "11.18" width="3.20"/>
<edge id="030_001_1" from="029_001" to="030_001" priority="3" numLanes="3" speed= "11.18" width="3.20"/>
<edge id="030_001_2" from="030_002" to="030_001" priority="3" numLanes="3" speed= "11.18" width="3.20"/>
<edge id="030_001_3" from="031_001" to="030_001" priority="3" numLanes="3" speed= "11.18" width="3.20"/>
<edge id="030_001_4" from="030_000" to="030_001" priority="3" numLanes="3" speed= "11.18" width="3.20"/>
<edge id="031_001_1" from="030_001" to="031_001" priority="3" numLanes="3" speed= "11.18" width="3.20"/>
<edge id="031_001_2" from="031_002" to="031_001" priority="3" numLanes="3" speed= "11.18" width="3.20"/>
<edge id="031_001_3" from="032_001" to="031_001" priority="3" numLanes="3" speed= "11.18" width="3.20"/>
<edge id="031_001_4" from="031_000" to="031_001" priority="3" numLanes="3" speed= "11.18" width="3.20"/>
<edge id="032_001_1" from="031_001" to="032_001" priority="3" numLanes="3" speed= "11.18" width="3.20"/>
<edge id="032_001_2" from="032_002" to="032_001" priority="3" numLanes="3" speed= "11.18" width="3.20"/>
<edge id="032_001_3" from="033_001" to="032_001" priority="3" numLanes="3" speed= "11.18" width="3.20"/>
<edge id="032_001_4" from="032_000" to="032_001" priority="3" numLanes="3" speed= "11.18" width="3.20"/>
<edge id="033_001_1" from="032_001" to="033_001" priority="3" numLanes="3" speed= "11.18" width="3.20"/>
<edge id="033_001_2" from="033_002" to="033_001" priority="3" numLanes="3" speed= "11.18" width="3.20"/>
<edge id="033_001_3" from="034_001" to="033_001" priority="3" numLanes="3" speed= "11.18" width="3.20"/>
<edge id="033_001_4" from="033_000" to="033_001" priority="3" numLanes="3" speed= "11.18" width="3.20"/>
<edge id="034_001_1" from="033_001" to="034_001" priority="3" numLanes="3" speed= "11.18" width="3.20"/>
<edge id="034_001_2" from="034_002" to="034_001" priority="3" numLanes="3" speed= "11.18" width="3.20"/>
<edge id="034_001_3" from="035_001" to="034_001" priority="3" numLanes="3" speed= "11.18" width="3.20"/>
<edge id="034_001_4" from="034_000" to="034_001" priority="3" numLanes="3" speed= "11.18" width="3.20"/>
<edge id="035_001_1" from="034_001" to="035_001" priority="3" numLanes="3" speed= "11.18" width="3.20"/>
<edge id="035_001_2" from="035_002" to="035_001" priority="3" numLanes="3" speed= "11.18" width="3.20"/>
<edge id="035_001_3" from="036_001" to="035_001" priority="3" numLanes="3" speed= "11.18" width="3.20"/>
<edge id="035_001_4" from="035_000" to="035_001" priority="3" numLanes="3" speed= "11.18" width="3.20"/>
<edge id="036_001_1" from="035_001" to="036_001" priority="3" numLanes="3" speed= "11.18" width="3.20"/>
<edge id="036_001_2" from="036_002" to="036_001" priority="3" numLanes="3" speed= "11.18" width="3.20"/>
<edge id="036_001_3" from="037_001" to="036_001" priority="3" numLanes="3" speed= "11.18" width="3.20"/>
<edge id="036_001_4" from="036_000" to="036_001" priority="3" numLanes="3" speed= "11.18" width="3.20"/>
<edge id="037_001_1" from="036_001" to="037_001" priority="3" numLanes="3" speed= "11.18" width="3.20"/>
<edge id="037_001_2" from="037_002" to="037_001" priority="3" numLanes="3" speed= "11.18" width="3.20"/>
<edge id="037_001_3" from="038_001" to="037_001" priority="3" numLanes="3" speed= "11.18" width="3.20"/>
<edge id="037_001_4" from="037_000" to="037_001" priority="3" numLanes="3" speed= "11.18" width="3.20"/>
<edge id="038_001_1" from="037_001" to="038_001" priority="3" numLanes="3" speed= "11.18" width="3.20"/>
<edge id="038_001_2" from="038_002" to="038_001" priority="3" numLanes="3" speed= "11.18" width="3.20"/>
<edge id="038_001_3" from="039_001" to="038_001" priority="3" numLanes="3" speed= "11.18" width="3.20"/>
<edge id="038_001_4" from="038_000" to="038_001" priority="3" numLanes="3" speed= "11.18" width="3.20"/>
<edge id="039_001_1" from="038_001" to="039_001" priority="3" numLanes="3" speed= "11.18" width="3.20"/>
<edge id="039_001_2" from="039_002" to="039_001" priority="3" numLanes="3" speed= "11.18" width="3.20"/>
<edge id="039_001_3" from="040_001" to="039_001" priority="3" numLanes="3" speed= "11.18" width="3.20"/>
<edge id="039_001_4" from="039_000" to="039_001" priority="3" numLanes="3" speed= "11.18" width="3.20"/>
<edge id="040_001_1" from="039_001" to="040_001" priority="3" numLanes="3" speed= "11.18" width="3.20"/>
<edge id="040_001_2" from="040_002" to="040_001" priority="3" numLanes="3" speed= "11.18" width="3.20"/>
<edge id="040_001_3" from="041_001" to="040_001" priority="3" numLanes="3" speed= "11.18" width="3.20"/>
<edge id="040_001_4" from="040_000" to="040_001" priority="3" numLanes="3" speed= "11.18" width="3.20"/>
<edge id="041_001_1" from="040_001" to="041_001" priority="3" numLanes="3" speed= "11.18" width="3.20"/>
<edge id="041_001_2" from="041_002" to="041_001" priority="3" numLanes="3" speed= "11.18" width="3.20"/>
<edge id="041_001_3" from="042_001" to="041_001" priority="3" numLanes="3" speed= "11.18" width="3.20"/>
<edge id="041_001_4" from="041_000" to="041_001" priority="3" numLanes="3" speed= "11.18" width="3.20"/>
<edge id="042_001_1" from="041_001" to="042_001" priority="3" numLanes="3" speed= "11.18" width="3.20"/>
<edge id="042_001_2" from="042_002" to="042_001" priority="3" numLanes="3" speed= "11.18" width="3.20"/>
<edge id="042_001_3" from="043_001" to="042_001" priority="3" numLanes="3" speed= "11.18" width="3.20"/>
<edge id="042_001_4" from="042_000" to="042_001" priority="3" numLanes="3" speed= "11.18" width="3.20"/>
<edge id="043_001_1" from="042_001" to="043_001" priority="3" numLanes="3" speed= "11.18" width="3.20"/>
<edge id="043_001_2" from="043_002" to="043_001" priority="3" numLanes="3" speed= "11.18" width="3.20"/>
<edge id="043_001_3" from="044_001" to="043_001" priority="3" numLanes="3" speed= "11.18" width="3.20"/>
<edge id="043_001_4" from="043_000" to="043_001" priority="3" numLanes="3" speed= "11.18" width="3.20"/>
<edge id="044_001_1" from="043_001" to="044_001" priority="3" numLanes="3" speed= "11.18" width="3.20"/>
<edge id="044_001_2" from="044_002" to="044_001" priority="3" numLanes="3" speed= "11.18" width="3.20"/>
<edge id="044_001_3" from="045_001" to="044_001" priority="3" numLanes="3" speed= "11.18" width="3.20"/>
<edge id="044_001_4" from="044_000" to="044_001" priority="3" numLanes="3" speed= "11.18" width="3.20"/>
<edge id="045_001_1" from="044_001" to="045_001" priority="3" numLanes="3" speed= "11.18" width="3.20"/>
<edge id="045_001_2" from="045_002" to="045_001" priority="3" numLanes="3" speed= "11.18" width="3.20"/>
<edge id="045_001_3" from="046_001" to="045_001" priority="3" numLanes="3" speed= "11.18" width="3.20"/>
<edge id="045_001_4" from="045_000" to="045_001" priority="3" numLanes="3" speed= "11.18" width="3.20"/>
<edge id="046_001_1" from="045_001" to="046_001" priority="3" numLanes="3" speed= "11.18" width="3.20"/>
<edge id="046_001_2" from="046_002" to="046_001" priority="3" numLanes="3" speed= "11.18" width="3.20"/>
<edge id="046_001_3" from="047_001" to="046_001" priority="3" numLanes="3" speed= "11.18" width="3.20"/>
<edge id="046_001_4" from="046_000" to="046_001" priority="3" numLanes="3" speed= "11.18" width="3.20"/>
<edge id="047_001_1" from="046_001" to="047_001" priority="3" numLanes="3" speed= "11.18" width="3.20"/>
<edge id="047_001_2" from="047_002" to="047_001" priority="3" numLanes="3" speed= "11.18" width="3.20"/>
<edge id="047_001_3" from="048_001" to="047_001" priority="3" numLanes="3" speed= "11.18" width="3.20"/>
<edge id="047_001_4" from="047_000" to="047_001" priority="3" numLanes="3" speed= "11.18" width="3.20"/>
<edge id="048_001_1" from="047_001" to="048_001" priority="3" numLanes="3" speed= "11.18" width="3.20"/>
<edge id="048_001_2" from="048_002" to="048_001" priority="3" numLanes="3" speed= "11.18" width="3.20"/>
<edge id="048_001_3" from="049_001" to="048_001" priority="3" numLanes="3" speed= "11.18" width="3.20"/>
<edge id="048_001_4" from="048_000" to="048_001" priority="3" numLanes="3" speed= "11.18" width="3.20"/>
<edge id="049_001_1" from="048_001" to="049_001" priority="3" numLanes="3" speed= "11.18" width="3.20"/>
<edge id="049_001_2" from="049_002" to="049_001" priority="3" numLanes="3" speed= "11.18" width="3.20"/>
<edge id="049_001_3" from="050_001" to="049_001" priority="3" numLanes="3" speed= "11.18" width="3.20"/>
<edge id="049_001_4" from="049_000" to="049_001" priority="3" numLanes="3" speed= "11.18" width="3.20"/>
<edge id="050_001_1" from="049_001" to="050_001" priority="3" numLanes="3" speed= "11.18" width="3.20"/>
<edge id="050_001_2" from="050_002" to="050_001" priority="3" numLanes="3" speed= "11.18" width="3.20"/>
<edge id="050_001_3" from="051_001" to="050_001" priority="3" numLanes="3" speed= "11.18" width="3.20"/>
<edge id="050_001_4" from="050_000" to="050_001" priority="3" numLanes="3" speed= "11.18" width="3.20"/>
<edge id="001_002_1" from="000_002" to="001_002" priority="3" numLanes="3" speed= "11.18" width="3.20"/>
<edge id="001_002_2" from="001_003" to="001_002" priority="3" numLanes="3" speed= "11.18" width="3.20"/>
<edge id="001_002_3" from="002_002" to="001_002" priority="3" numLanes="3" speed= "11.18" width="3.20"/>
<edge id="001_002_4" from="001_001" to="001_002" priority="3" numLanes="3" speed= "11.18" width="3.20"/>
<edge id="002_002_1" from="001_002" to="002_002" priority="3" numLanes="3" speed= "11.18" width="3.20"/>
<edge id="002_002_2" from="002_003" to="002_002" priority="3" numLanes="3" speed= "11.18" width="3.20"/>
<edge id="002_002_3" from="003_002" to="002_002" priority="3" numLanes="3" speed= "11.18" width="3.20"/>
<edge id="002_002_4" from="002_001" to="002_002" priority="3" numLanes="3" speed= "11.18" width="3.20"/>
<edge id="003_002_1" from="002_002" to="003_002" priority="3" numLanes="3" speed= "11.18" width="3.20"/>
<edge id="003_002_2" from="003_003" to="003_002" priority="3" numLanes="3" speed= "11.18" width="3.20"/>
<edge id="003_002_3" from="004_002" to="003_002" priority="3" numLanes="3" speed= "11.18" width="3.20"/>
<edge id="003_002_4" from="003_001" to="003_002" priority="3" numLanes="3" speed= "11.18" width="3.20"/>
<edge id="004_002_1" from="003_002" to="004_002" priority="3" numLanes="3" speed= "11.18" width="3.20"/>
<edge id="004_002_2" from="004_003" to="004_002" priority="3" numLanes="3" speed= "11.18" width="3.20"/>
<edge id="004_002_3" from="005_002" to="004_002" priority="3" numLanes="3" speed= "11.18" width="3.20"/>
<edge id="004_002_4" from="004_001" to="004_002" priority="3" numLanes="3" speed= "11.18" width="3.20"/>
<edge id="005_002_1" from="004_002" to="005_002" priority="3" numLanes="3" speed= "11.18" width="3.20"/>
<edge id="005_002_2" from="005_003" to="005_002" priority="3" numLanes="3" speed= "11.18" width="3.20"/>
<edge id="005_002_3" from="006_002" to="005_002" priority="3" numLanes="3" speed= "11.18" width="3.20"/>
<edge id="005_002_4" from="005_001" to="005_002" priority="3" numLanes="3" speed= "11.18" width="3.20"/>
<edge id="006_002_1" from="005_002" to="006_002" priority="3" numLanes="3" speed= "11.18" width="3.20"/>
<edge id="006_002_2" from="006_003" to="006_002" priority="3" numLanes="3" speed= "11.18" width="3.20"/>
<edge id="006_002_3" from="007_002" to="006_002" priority="3" numLanes="3" speed= "11.18" width="3.20"/>
<edge id="006_002_4" from="006_001" to="006_002" priority="3" numLanes="3" speed= "11.18" width="3.20"/>
<edge id="007_002_1" from="006_002" to="007_002" priority="3" numLanes="3" speed= "11.18" width="3.20"/>
<edge id="007_002_2" from="007_003" to="007_002" priority="3" numLanes="3" speed= "11.18" width="3.20"/>
<edge id="007_002_3" from="008_002" to="007_002" priority="3" numLanes="3" speed= "11.18" width="3.20"/>
<edge id="007_002_4" from="007_001" to="007_002" priority="3" numLanes="3" speed= "11.18" width="3.20"/>
<edge id="008_002_1" from="007_002" to="008_002" priority="3" numLanes="3" speed= "11.18" width="3.20"/>
<edge id="008_002_2" from="008_003" to="008_002" priority="3" numLanes="3" speed= "11.18" width="3.20"/>
<edge id="008_002_3" from="009_002" to="008_002" priority="3" numLanes="3" speed= "11.18" width="3.20"/>
<edge id="008_002_4" from="008_001" to="008_002" priority="3" numLanes="3" speed= "11.18" width="3.20"/>
<edge id="009_002_1" from="008_002" to="009_002" priority="3" numLanes="3" speed= "11.18" width="3.20"/>
<edge id="009_002_2" from="009_003" to="009_002" priority="3" numLanes="3" speed= "11.18" width="3.20"/>
<edge id="009_002_3" from="010_002" to="009_002" priority="3" numLanes="3" speed= "11.18" width="3.20"/>
<edge id="009_002_4" from="009_001" to="009_002" priority="3" numLanes="3" speed= "11.18" width="3.20"/>
<edge id="010_002_1" from="009_002" to="010_002" priority="3" numLanes="3" speed= "11.18" width="3.20"/>
<edge id="010_002_2" from="010_003" to="010_002" priority="3" numLanes="3" speed= "11.18" width="3.20"/>
<edge id="010_002_3" from="011_002" to="010_002" priority="3" numLanes="3" speed= "11.18" width="3.20"/>
<edge id="010_002_4" from="010_001" to="010_002" priority="3" numLanes="3" speed= "11.18" width="3.20"/>
<edge id="011_002_1" from="010_002" to="011_002" priority="3" numLanes="3" speed= "11.18" width="3.20"/>
<edge id="011_002_2" from="011_003" to="011_002" priority="3" numLanes="3" speed= "11.18" width="3.20"/>
<edge id="011_002_3" from="012_002" to="011_002" priority="3" numLanes="3" speed= "11.18" width="3.20"/>
<edge id="011_002_4" from="011_001" to="011_002" priority="3" numLanes="3" speed= "11.18" width="3.20"/>
<edge id="012_002_1" from="011_002" to="012_002" priority="3" numLanes="3" speed= "11.18" width="3.20"/>
<edge id="012_002_2" from="012_003" to="012_002" priority="3" numLanes="3" speed= "11.18" width="3.20"/>
<edge id="012_002_3" from="013_002" to="012_002" priority="3" numLanes="3" speed= "11.18" width="3.20"/>
<edge id="012_002_4" from="012_001" to="012_002" priority="3" numLanes="3" speed= "11.18" width="3.20"/>
<edge id="013_002_1" from="012_002" to="013_002" priority="3" numLanes="3" speed= "11.18" width="3.20"/>
<edge id="013_002_2" from="013_003" to="013_002" priority="3" numLanes="3" speed= "11.18" width="3.20"/>
<edge id="013_002_3" from="014_002" to="013_002" priority="3" numLanes="3" speed= "11.18" width="3.20"/>
<edge id="013_002_4" from="013_001" to="013_002" priority="3" numLanes="3" speed= "11.18" width="3.20"/>
<edge id="014_002_1" from="013_002" to="014_002" priority="3" numLanes="3" speed= "11.18" width="3.20"/>
<edge id="014_002_2" from="014_003" to="014_002" priority="3" numLanes="3" speed= "11.18" width="3.20"/>
<edge id="014_002_3" from="015_002" to="014_002" priority="3" numLanes="3" speed= "11.18" width="3.20"/>
<edge id="014_002_4" from="014_001" to="014_002" priority="3" numLanes="3" speed= "11.18" width="3.20"/>
<edge id="015_002_1" from="014_002" to="015_002" priority="3" numLanes="3" speed= "11.18" width="3.20"/>
<edge id="015_002_2" from="015_003" to="015_002" priority="3" numLanes="3" speed= "11.18" width="3.20"/>
<edge id="015_002_3" from="016_002" to="015_002" priority="3" numLanes="3" speed= "11.18" width="3.20"/>
<edge id="015_002_4" from="015_001" to="015_002" priority="3" numLanes="3" speed= "11.18" width="3.20"/>
<edge id="016_002_1" from="015_002" to="016_002" priority="3" numLanes="3" speed= "11.18" width="3.20"/>
<edge id="016_002_2" from="016_003" to="016_002" priority="3" numLanes="3" speed= "11.18" width="3.20"/>
<edge id="016_002_3" from="017_002" to="016_002" priority="3" numLanes="3" speed= "11.18" width="3.20"/>
<edge id="016_002_4" from="016_001" to="016_002" priority="3" numLanes="3" speed= "11.18" width="3.20"/>
<edge id="017_002_1" from="016_002" to="017_002" priority="3" numLanes="3" speed= "11.18" width="3.20"/>
<edge id="017_002_2" from="017_003" to="017_002" priority="3" numLanes="3" speed= "11.18" width="3.20"/>
<edge id="017_002_3" from="018_002" to="017_002" priority="3" numLanes="3" speed= "11.18" width="3.20"/>
<edge id="017_002_4" from="017_001" to="017_002" priority="3" numLanes="3" speed= "11.18" width="3.20"/>
<edge id="018_002_1" from="017_002" to="018_002" priority="3" numLanes="3" speed= "11.18" width="3.20"/>
<edge id="018_002_2" from="018_003" to="018_002" priority="3" numLanes="3" speed= "11.18" width="3.20"/>
<edge id="018_002_3" from="019_002" to="018_002" priority="3" numLanes="3" speed= "11.18" width="3.20"/>
<edge id="018_002_4" from="018_001" to="018_002" priority="3" numLanes="3" speed= "11.18" width="3.20"/>
<edge id="019_002_1" from="018_002" to="019_002" priority="3" numLanes="3" speed= "11.18" width="3.20"/>
<edge id="019_002_2" from="019_003" to="019_002" priority="3" numLanes="3" speed= "11.18" width="3.20"/>
<edge id="019_002_3" from="020_002" to="019_002" priority="3" numLanes="3" speed= "11.18" width="3.20"/>
<edge id="019_002_4" from="019_001" to="019_002" priority="3" numLanes="3" speed= "11.18" width="3.20"/>
<edge id="020_002_1" from="019_002" to="020_002" priority="3" numLanes="3" speed= "11.18" width="3.20"/>
<edge id="020_002_2" from="020_003" to="020_002" priority="3" numLanes="3" speed= "11.18" width="3.20"/>
<edge id="020_002_3" from="021_002" to="020_002" priority="3" numLanes="3" speed= "11.18" width="3.20"/>
<edge id="020_002_4" from="020_001" to="020_002" priority="3" numLanes="3" speed= "11.18" width="3.20"/>
<edge id="021_002_1" from="020_002" to="021_002" priority="3" numLanes="3" speed= "11.18" width="3.20"/>
<edge id="021_002_2" from="021_003" to="021_002" priority="3" numLanes="3" speed= "11.18" width="3.20"/>
<edge id="021_002_3" from="022_002" to="021_002" priority="3" numLanes="3" speed= "11.18" width="3.20"/>
<edge id="021_002_4" from="021_001" to="021_002" priority="3" numLanes="3" speed= "11.18" width="3.20"/>
<edge id="022_002_1" from="021_002" to="022_002" priority="3" numLanes="3" speed= "11.18" width="3.20"/>