<?xml version="1.0" encoding="UTF-8"?>

<!-- generated on 2022-02-09 18:57:44 by Eclipse SUMO netconvert Version 1.12.0
<configuration xmlns:xsi="http://www.w3.org/2001/XMLSchema-instance" xsi:noNamespaceSchemaLocation="http://sumo.dlr.de/xsd/netconvertConfiguration.xsd">

    <input>
        <node-files value="./tmp/lane.nod.xml"/>
        <edge-files value="./tmp/lane.edg.xml"/>
        <connection-files value="./tmp/lane.con.xml"/>
    </input>

    <output>
        <output-file value="./tmp/lane11by11.net.xml"/>
    </output>

    <report>
        <aggregate-warnings value="5"/>
    </report>

</configuration>
-->

<net version="1.9" junctionCornerDetail="5" limitTurnSpeed="5.50" xmlns:xsi="http://www.w3.org/2001/XMLSchema-instance" xsi:noNamespaceSchemaLocation="http://sumo.dlr.de/xsd/net_file.xsd">

    <location netOffset="286.40,286.40" convBoundary="0.00,0.00,3299.20,3299.20" origBoundary="-286.40,-286.40,3012.80,3012.80" projParameter="!"/>

    <edge id=":001_001_0" function="internal">
        <lane id=":001_001_0_0" index="0" speed="6.51" length="9.03" width="3.20" shape="505.60,527.20 505.25,524.75 504.20,523.00 502.45,521.95 500.00,521.60"/>
    </edge>
    <edge id=":001_001_1" function="internal">
        <lane id=":001_001_1_0" index="0" speed="11.18" length="27.20" width="3.20" shape="505.60,527.20 505.60,500.00"/>
    </edge>
    <edge id=":001_001_2" function="internal">
        <lane id=":001_001_2_0" index="0" speed="11.18" length="5.83" width="3.20" shape="505.60,527.20 507.27,521.62"/>
    </edge>
    <edge id=":001_001_3" function="internal">
        <lane id=":001_001_3_0" index="0" speed="8.00" length="4.07" width="3.20" shape="508.80,527.20 508.25,523.35 508.16,523.20"/>
    </edge>
    <edge id=":001_001_4" function="internal">
        <lane id=":001_001_4_0" index="0" speed="11.18" length="27.20" width="3.20" shape="508.80,527.20 508.80,500.00"/>
    </edge>
    <edge id=":001_001_5" function="internal">
        <lane id=":001_001_5_0" index="0" speed="11.07" length="8.84" width="3.20" shape="508.80,527.20 510.46,520.67 511.69,518.97"/>
    </edge>
    <edge id=":001_001_6" function="internal">
        <lane id=":001_001_6_0" index="0" speed="9.26" length="5.01" width="3.20" shape="512.00,527.20 511.29,522.24"/>
    </edge>
    <edge id=":001_001_7" function="internal">
        <lane id=":001_001_7_0" index="0" speed="11.18" length="27.20" width="3.20" shape="512.00,527.20 512.00,500.00"/>
    </edge>
    <edge id=":001_001_8" function="internal">
        <lane id=":001_001_8_0" index="0" speed="10.10" length="2.96" width="3.20" shape="512.00,527.20 512.73,524.33"/>
    </edge>
    <edge id=":001_001_36" function="internal">
        <lane id=":001_001_36_0" index="0" speed="11.18" length="26.67" width="3.20" shape="507.27,521.62 507.72,520.07 513.07,513.07 520.07,507.72 527.20,505.60"/>
    </edge>
    <edge id=":001_001_37" function="internal">
        <lane id=":001_001_37_0" index="0" speed="8.00" length="10.13" width="3.20" shape="508.16,523.20 506.60,520.60 503.85,518.95 500.00,518.40"/>
    </edge>
    <edge id=":001_001_38" function="internal">
        <lane id=":001_001_38_0" index="0" speed="11.07" length="19.27" width="3.20" shape="511.69,518.97 514.75,514.75 520.67,510.46 527.20,508.80"/>
    </edge>
    <edge id=":001_001_39" function="internal">
        <lane id=":001_001_39_0" index="0" speed="9.26" length="14.34" width="3.20" shape="511.29,522.24 511.25,521.95 509.00,518.20 505.25,515.95 500.00,515.20"/>
    </edge>
    <edge id=":001_001_40" function="internal">
        <lane id=":001_001_40_0" index="0" speed="10.10" length="20.25" width="3.20" shape="512.73,524.33 513.37,521.80 516.91,516.91 521.80,513.37 527.20,512.00"/>
    </edge>
    <edge id=":001_001_9" function="internal">
        <lane id=":001_001_9_0" index="0" speed="6.51" length="9.03" width="3.20" shape="527.20,521.60 524.75,521.95 523.00,523.00 521.95,524.75 521.60,527.20"/>
    </edge>
    <edge id=":001_001_10" function="internal">
        <lane id=":001_001_10_0" index="0" speed="11.18" length="27.20" width="3.20" shape="527.20,521.60 500.00,521.60"/>
    </edge>
    <edge id=":001_001_11" function="internal">
        <lane id=":001_001_11_0" index="0" speed="11.18" length="32.49" width="3.20" shape="527.20,521.60 520.07,519.47 513.07,514.13 507.72,507.12 505.60,500.00"/>
    </edge>
    <edge id=":001_001_12" function="internal">
        <lane id=":001_001_12_0" index="0" speed="8.00" length="14.19" width="3.20" shape="527.20,518.40 523.35,518.95 520.60,520.60 518.95,523.35 518.40,527.20"/>
    </edge>
    <edge id=":001_001_13" function="internal">
        <lane id=":001_001_13_0" index="0" speed="11.18" length="27.20" width="3.20" shape="527.20,518.40 500.00,518.40"/>
    </edge>
    <edge id=":001_001_14" function="internal">
        <lane id=":001_001_14_0" index="0" speed="11.07" length="28.10" width="3.20" shape="527.20,518.40 520.67,516.74 514.75,512.45 510.46,506.53 508.80,500.00"/>
    </edge>
    <edge id=":001_001_15" function="internal">
        <lane id=":001_001_15_0" index="0" speed="9.26" length="19.35" width="3.20" shape="527.20,515.20 521.95,515.95 518.20,518.20 515.95,521.95 515.20,527.20"/>
    </edge>
    <edge id=":001_001_16" function="internal">
        <lane id=":001_001_16_0" index="0" speed="11.18" length="27.20" width="3.20" shape="527.20,515.20 500.00,515.20"/>
    </edge>
    <edge id=":001_001_17" function="internal">
        <lane id=":001_001_17_0" index="0" speed="10.10" length="23.22" width="3.20" shape="527.20,515.20 521.80,513.83 516.91,510.29 513.37,505.40 512.00,500.00"/>
    </edge>
    <edge id=":001_001_18" function="internal">
        <lane id=":001_001_18_0" index="0" speed="6.51" length="9.03" width="3.20" shape="521.60,500.00 521.95,502.45 523.00,504.20 524.75,505.25 527.20,505.60"/>
    </edge>
    <edge id=":001_001_19" function="internal">
        <lane id=":001_001_19_0" index="0" speed="11.18" length="27.20" width="3.20" shape="521.60,500.00 521.60,527.20"/>
    </edge>
    <edge id=":001_001_20" function="internal">
        <lane id=":001_001_20_0" index="0" speed="11.18" length="5.83" width="3.20" shape="521.60,500.00 519.93,505.58"/>
    </edge>
    <edge id=":001_001_21" function="internal">
        <lane id=":001_001_21_0" index="0" speed="8.00" length="4.07" width="3.20" shape="518.40,500.00 518.95,503.85 519.04,504.00"/>
    </edge>
    <edge id=":001_001_22" function="internal">
        <lane id=":001_001_22_0" index="0" speed="11.18" length="27.20" width="3.20" shape="518.40,500.00 518.40,527.20"/>
    </edge>
    <edge id=":001_001_23" function="internal">
        <lane id=":001_001_23_0" index="0" speed="11.07" length="8.84" width="3.20" shape="518.40,500.00 516.74,506.53 515.51,508.23"/>
    </edge>
    <edge id=":001_001_24" function="internal">
        <lane id=":001_001_24_0" index="0" speed="9.26" length="5.01" width="3.20" shape="515.20,500.00 515.91,504.96"/>
    </edge>
    <edge id=":001_001_25" function="internal">
        <lane id=":001_001_25_0" index="0" speed="11.18" length="27.20" width="3.20" shape="515.20,500.00 515.20,527.20"/>
    </edge>
    <edge id=":001_001_26" function="internal">
        <lane id=":001_001_26_0" index="0" speed="10.10" length="2.96" width="3.20" shape="515.20,500.00 514.47,502.87"/>
    </edge>
    <edge id=":001_001_41" function="internal">
        <lane id=":001_001_41_0" index="0" speed="11.18" length="26.67" width="3.20" shape="519.93,505.58 519.47,507.12 514.13,514.13 507.12,519.47 500.00,521.60"/>
    </edge>
    <edge id=":001_001_42" function="internal">
        <lane id=":001_001_42_0" index="0" speed="8.00" length="10.13" width="3.20" shape="519.04,504.00 520.60,506.60 523.35,508.25 527.20,508.80"/>
    </edge>
    <edge id=":001_001_43" function="internal">
        <lane id=":001_001_43_0" index="0" speed="11.07" length="19.27" width="3.20" shape="515.51,508.23 512.45,512.45 506.53,516.74 500.00,518.40"/>
    </edge>
    <edge id=":001_001_44" function="internal">
        <lane id=":001_001_44_0" index="0" speed="9.26" length="14.34" width="3.20" shape="515.91,504.96 515.95,505.25 518.20,509.00 521.95,511.25 527.20,512.00"/>
    </edge>
    <edge id=":001_001_45" function="internal">
        <lane id=":001_001_45_0" index="0" speed="10.10" length="20.25" width="3.20" shape="514.47,502.87 513.83,505.40 510.29,510.29 505.40,513.83 500.00,515.20"/>
    </edge>
    <edge id=":001_001_27" function="internal">
        <lane id=":001_001_27_0" index="0" speed="6.51" length="9.03" width="3.20" shape="500.00,505.60 502.45,505.25 504.20,504.20 505.25,502.45 505.60,500.00"/>
    </edge>
    <edge id=":001_001_28" function="internal">
        <lane id=":001_001_28_0" index="0" speed="11.18" length="27.20" width="3.20" shape="500.00,505.60 527.20,505.60"/>
    </edge>
    <edge id=":001_001_29" function="internal">
        <lane id=":001_001_29_0" index="0" speed="11.18" length="32.49" width="3.20" shape="500.00,505.60 507.12,507.72 514.13,513.07 519.47,520.07 521.60,527.20"/>
    </edge>
    <edge id=":001_001_30" function="internal">
        <lane id=":001_001_30_0" index="0" speed="8.00" length="14.19" width="3.20" shape="500.00,508.80 503.85,508.25 506.60,506.60 508.25,503.85 508.80,500.00"/>
    </edge>
    <edge id=":001_001_31" function="internal">
        <lane id=":001_001_31_0" index="0" speed="11.18" length="27.20" width="3.20" shape="500.00,508.80 527.20,508.80"/>
    </edge>
    <edge id=":001_001_32" function="internal">
        <lane id=":001_001_32_0" index="0" speed="11.07" length="28.10" width="3.20" shape="500.00,508.80 506.53,510.46 512.45,514.75 516.74,520.67 518.40,527.20"/>
    </edge>
    <edge id=":001_001_33" function="internal">
        <lane id=":001_001_33_0" index="0" speed="9.26" length="19.35" width="3.20" shape="500.00,512.00 505.25,511.25 509.00,509.00 511.25,505.25 512.00,500.00"/>
    </edge>
    <edge id=":001_001_34" function="internal">
        <lane id=":001_001_34_0" index="0" speed="11.18" length="27.20" width="3.20" shape="500.00,512.00 527.20,512.00"/>
    </edge>
    <edge id=":001_001_35" function="internal">
        <lane id=":001_001_35_0" index="0" speed="10.10" length="23.22" width="3.20" shape="500.00,512.00 505.40,513.37 510.29,516.91 513.83,521.80 515.20,527.20"/>
    </edge>
    <edge id=":001_002_0" function="internal">
        <lane id=":001_002_0_0" index="0" speed="6.51" length="9.03" width="3.20" shape="505.60,754.40 505.25,751.95 504.20,750.20 502.45,749.15 500.00,748.80"/>
    </edge>
    <edge id=":001_002_1" function="internal">
        <lane id=":001_002_1_0" index="0" speed="11.18" length="27.20" width="3.20" shape="505.60,754.40 505.60,727.20"/>
    </edge>
    <edge id=":001_002_2" function="internal">
        <lane id=":001_002_2_0" index="0" speed="11.18" length="5.83" width="3.20" shape="505.60,754.40 507.27,748.82"/>
    </edge>
    <edge id=":001_002_3" function="internal">
        <lane id=":001_002_3_0" index="0" speed="8.00" length="4.07" width="3.20" shape="508.80,754.40 508.25,750.55 508.16,750.40"/>
    </edge>
    <edge id=":001_002_4" function="internal">
        <lane id=":001_002_4_0" index="0" speed="11.18" length="27.20" width="3.20" shape="508.80,754.40 508.80,727.20"/>
    </edge>
    <edge id=":001_002_5" function="internal">
        <lane id=":001_002_5_0" index="0" speed="11.07" length="8.84" width="3.20" shape="508.80,754.40 510.46,747.87 511.69,746.17"/>
    </edge>
    <edge id=":001_002_6" function="internal">
        <lane id=":001_002_6_0" index="0" speed="9.26" length="5.01" width="3.20" shape="512.00,754.40 511.29,749.44"/>
    </edge>
    <edge id=":001_002_7" function="internal">
        <lane id=":001_002_7_0" index="0" speed="11.18" length="27.20" width="3.20" shape="512.00,754.40 512.00,727.20"/>
    </edge>
    <edge id=":001_002_8" function="internal">
        <lane id=":001_002_8_0" index="0" speed="10.10" length="2.96" width="3.20" shape="512.00,754.40 512.73,751.53"/>
    </edge>
    <edge id=":001_002_36" function="internal">
        <lane id=":001_002_36_0" index="0" speed="11.18" length="26.67" width="3.20" shape="507.27,748.82 507.72,747.27 513.07,740.27 520.07,734.92 527.20,732.80"/>
    </edge>
    <edge id=":001_002_37" function="internal">
        <lane id=":001_002_37_0" index="0" speed="8.00" length="10.13" width="3.20" shape="508.16,750.40 506.60,747.80 503.85,746.15 500.00,745.60"/>
    </edge>
    <edge id=":001_002_38" function="internal">
        <lane id=":001_002_38_0" index="0" speed="11.07" length="19.27" width="3.20" shape="511.69,746.17 514.75,741.95 520.67,737.66 527.20,736.00"/>
    </edge>
    <edge id=":001_002_39" function="internal">
        <lane id=":001_002_39_0" index="0" speed="9.26" length="14.34" width="3.20" shape="511.29,749.44 511.25,749.15 509.00,745.40 505.25,743.15 500.00,742.40"/>
    </edge>
    <edge id=":001_002_40" function="internal">
        <lane id=":001_002_40_0" index="0" speed="10.10" length="20.25" width="3.20" shape="512.73,751.53 513.37,749.00 516.91,744.11 521.80,740.57 527.20,739.20"/>
    </edge>
    <edge id=":001_002_9" function="internal">
        <lane id=":001_002_9_0" index="0" speed="6.51" length="9.03" width="3.20" shape="527.20,748.80 524.75,749.15 523.00,750.20 521.95,751.95 521.60,754.40"/>
    </edge>
    <edge id=":001_002_10" function="internal">
        <lane id=":001_002_10_0" index="0" speed="11.18" length="27.20" width="3.20" shape="527.20,748.80 500.00,748.80"/>
    </edge>
    <edge id=":001_002_11" function="internal">
        <lane id=":001_002_11_0" index="0" speed="11.18" length="32.49" width="3.20" shape="527.20,748.80 520.07,746.67 513.07,741.33 507.72,734.32 505.60,727.20"/>
    </edge>
    <edge id=":001_002_12" function="internal">
        <lane id=":001_002_12_0" index="0" speed="8.00" length="14.19" width="3.20" shape="527.20,745.60 523.35,746.15 520.60,747.80 518.95,750.55 518.40,754.40"/>
    </edge>
    <edge id=":001_002_13" function="internal">
        <lane id=":001_002_13_0" index="0" speed="11.18" length="27.20" width="3.20" shape="527.20,745.60 500.00,745.60"/>
    </edge>
    <edge id=":001_002_14" function="internal">
        <lane id=":001_002_14_0" index="0" speed="11.07" length="28.10" width="3.20" shape="527.20,745.60 520.67,743.94 514.75,739.65 510.46,733.73 508.80,727.20"/>
    </edge>
    <edge id=":001_002_15" function="internal">
        <lane id=":001_002_15_0" index="0" speed="9.26" length="19.35" width="3.20" shape="527.20,742.40 521.95,743.15 518.20,745.40 515.95,749.15 515.20,754.40"/>
    </edge>
    <edge id=":001_002_16" function="internal">
        <lane id=":001_002_16_0" index="0" speed="11.18" length="27.20" width="3.20" shape="527.20,742.40 500.00,742.40"/>
    </edge>
    <edge id=":001_002_17" function="internal">
        <lane id=":001_002_17_0" index="0" speed="10.10" length="23.22" width="3.20" shape="527.20,742.40 521.80,741.03 516.91,737.49 513.37,732.60 512.00,727.20"/>
    </edge>
    <edge id=":001_002_18" function="internal">
        <lane id=":001_002_18_0" index="0" speed="6.51" length="9.03" width="3.20" shape="521.60,727.20 521.95,729.65 523.00,731.40 524.75,732.45 527.20,732.80"/>
    </edge>
    <edge id=":001_002_19" function="internal">
        <lane id=":001_002_19_0" index="0" speed="11.18" length="27.20" width="3.20" shape="521.60,727.20 521.60,754.40"/>
    </edge>
    <edge id=":001_002_20" function="internal">
        <lane id=":001_002_20_0" index="0" speed="11.18" length="5.83" width="3.20" shape="521.60,727.20 519.93,732.78"/>
    </edge>
    <edge id=":001_002_21" function="internal">
        <lane id=":001_002_21_0" index="0" speed="8.00" length="4.07" width="3.20" shape="518.40,727.20 518.95,731.05 519.04,731.20"/>
    </edge>
    <edge id=":001_002_22" function="internal">
        <lane id=":001_002_22_0" index="0" speed="11.18" length="27.20" width="3.20" shape="518.40,727.20 518.40,754.40"/>
    </edge>
    <edge id=":001_002_23" function="internal">
        <lane id=":001_002_23_0" index="0" speed="11.07" length="8.84" width="3.20" shape="518.40,727.20 516.74,733.73 515.51,735.43"/>
    </edge>
    <edge id=":001_002_24" function="internal">
        <lane id=":001_002_24_0" index="0" speed="9.26" length="5.01" width="3.20" shape="515.20,727.20 515.91,732.16"/>
    </edge>
    <edge id=":001_002_25" function="internal">
        <lane id=":001_002_25_0" index="0" speed="11.18" length="27.20" width="3.20" shape="515.20,727.20 515.20,754.40"/>
    </edge>
    <edge id=":001_002_26" function="internal">
        <lane id=":001_002_26_0" index="0" speed="10.10" length="2.96" width="3.20" shape="515.20,727.20 514.47,730.07"/>
    </edge>
    <edge id=":001_002_41" function="internal">
        <lane id=":001_002_41_0" index="0" speed="11.18" length="26.67" width="3.20" shape="519.93,732.78 519.47,734.32 514.13,741.33 507.12,746.67 500.00,748.80"/>
    </edge>
    <edge id=":001_002_42" function="internal">
        <lane id=":001_002_42_0" index="0" speed="8.00" length="10.13" width="3.20" shape="519.04,731.20 520.60,733.80 523.35,735.45 527.20,736.00"/>
    </edge>
    <edge id=":001_002_43" function="internal">
        <lane id=":001_002_43_0" index="0" speed="11.07" length="19.27" width="3.20" shape="515.51,735.43 512.45,739.65 506.53,743.94 500.00,745.60"/>
    </edge>
    <edge id=":001_002_44" function="internal">
        <lane id=":001_002_44_0" index="0" speed="9.26" length="14.34" width="3.20" shape="515.91,732.16 515.95,732.45 518.20,736.20 521.95,738.45 527.20,739.20"/>
    </edge>
    <edge id=":001_002_45" function="internal">
        <lane id=":001_002_45_0" index="0" speed="10.10" length="20.25" width="3.20" shape="514.47,730.07 513.83,732.60 510.29,737.49 505.40,741.03 500.00,742.40"/>
    </edge>
    <edge id=":001_002_27" function="internal">
        <lane id=":001_002_27_0" index="0" speed="6.51" length="9.03" width="3.20" shape="500.00,732.80 502.45,732.45 504.20,731.40 505.25,729.65 505.60,727.20"/>
    </edge>
    <edge id=":001_002_28" function="internal">
        <lane id=":001_002_28_0" index="0" speed="11.18" length="27.20" width="3.20" shape="500.00,732.80 527.20,732.80"/>
    </edge>
    <edge id=":001_002_29" function="internal">
        <lane id=":001_002_29_0" index="0" speed="11.18" length="32.49" width="3.20" shape="500.00,732.80 507.12,734.92 514.13,740.27 519.47,747.27 521.60,754.40"/>
    </edge>
    <edge id=":001_002_30" function="internal">
        <lane id=":001_002_30_0" index="0" speed="8.00" length="14.19" width="3.20" shape="500.00,736.00 503.85,735.45 506.60,733.80 508.25,731.05 508.80,727.20"/>
    </edge>
    <edge id=":001_002_31" function="internal">
        <lane id=":001_002_31_0" index="0" speed="11.18" length="27.20" width="3.20" shape="500.00,736.00 527.20,736.00"/>
    </edge>
    <edge id=":001_002_32" function="internal">
        <lane id=":001_002_32_0" index="0" speed="11.07" length="28.10" width="3.20" shape="500.00,736.00 506.53,737.66 512.45,741.95 516.74,747.87 518.40,754.40"/>
    </edge>
    <edge id=":001_002_33" function="internal">
        <lane id=":001_002_33_0" index="0" speed="9.26" length="19.35" width="3.20" shape="500.00,739.20 505.25,738.45 509.00,736.20 511.25,732.45 512.00,727.20"/>
    </edge>
    <edge id=":001_002_34" function="internal">
        <lane id=":001_002_34_0" index="0" speed="11.18" length="27.20" width="3.20" shape="500.00,739.20 527.20,739.20"/>
    </edge>
    <edge id=":001_002_35" function="internal">
        <lane id=":001_002_35_0" index="0" speed="10.10" length="23.22" width="3.20" shape="500.00,739.20 505.40,740.57 510.29,744.11 513.83,749.00 515.20,754.40"/>
    </edge>
    <edge id=":001_003_0" function="internal">
        <lane id=":001_003_0_0" index="0" speed="6.51" length="9.03" width="3.20" shape="505.60,981.60 505.25,979.15 504.20,977.40 502.45,976.35 500.00,976.00"/>
    </edge>
    <edge id=":001_003_1" function="internal">
        <lane id=":001_003_1_0" index="0" speed="11.18" length="27.20" width="3.20" shape="505.60,981.60 505.60,954.40"/>
    </edge>
    <edge id=":001_003_2" function="internal">
        <lane id=":001_003_2_0" index="0" speed="11.18" length="5.83" width="3.20" shape="505.60,981.60 507.27,976.02"/>
    </edge>
    <edge id=":001_003_3" function="internal">
        <lane id=":001_003_3_0" index="0" speed="8.00" length="4.07" width="3.20" shape="508.80,981.60 508.25,977.75 508.16,977.60"/>
    </edge>
    <edge id=":001_003_4" function="internal">
        <lane id=":001_003_4_0" index="0" speed="11.18" length="27.20" width="3.20" shape="508.80,981.60 508.80,954.40"/>
    </edge>
    <edge id=":001_003_5" function="internal">
        <lane id=":001_003_5_0" index="0" speed="11.07" length="8.84" width="3.20" shape="508.80,981.60 510.46,975.07 511.69,973.37"/>
    </edge>
    <edge id=":001_003_6" function="internal">
        <lane id=":001_003_6_0" index="0" speed="9.26" length="5.01" width="3.20" shape="512.00,981.60 511.29,976.64"/>
    </edge>
    <edge id=":001_003_7" function="internal">
        <lane id=":001_003_7_0" index="0" speed="11.18" length="27.20" width="3.20" shape="512.00,981.60 512.00,954.40"/>
    </edge>
    <edge id=":001_003_8" function="internal">
        <lane id=":001_003_8_0" index="0" speed="10.10" length="2.96" width="3.20" shape="512.00,981.60 512.73,978.73"/>
    </edge>
    <edge id=":001_003_36" function="internal">
        <lane id=":001_003_36_0" index="0" speed="11.18" length="26.67" width="3.20" shape="507.27,976.02 507.72,974.48 513.07,967.47 520.07,962.12 527.20,960.00"/>
    </edge>
    <edge id=":001_003_37" function="internal">
        <lane id=":001_003_37_0" index="0" speed="8.00" length="10.13" width="3.20" shape="508.16,977.60 506.60,975.00 503.85,973.35 500.00,972.80"/>
    </edge>
    <edge id=":001_003_38" function="internal">
        <lane id=":001_003_38_0" index="0" speed="11.07" length="19.27" width="3.20" shape="511.69,973.37 514.75,969.15 520.67,964.86 527.20,963.20"/>
    </edge>
    <edge id=":001_003_39" function="internal">
        <lane id=":001_003_39_0" index="0" speed="9.26" length="14.34" width="3.20" shape="511.29,976.64 511.25,976.35 509.00,972.60 505.25,970.35 500.00,969.60"/>
    </edge>
    <edge id=":001_003_40" function="internal">
        <lane id=":001_003_40_0" index="0" speed="10.10" length="20.25" width="3.20" shape="512.73,978.73 513.37,976.20 516.91,971.31 521.80,967.77 527.20,966.40"/>
    </edge>
    <edge id=":001_003_9" function="internal">
        <lane id=":001_003_9_0" index="0" speed="6.51" length="9.03" width="3.20" shape="527.20,976.00 524.75,976.35 523.00,977.40 521.95,979.15 521.60,981.60"/>
    </edge>
    <edge id=":001_003_10" function="internal">
        <lane id=":001_003_10_0" index="0" speed="11.18" length="27.20" width="3.20" shape="527.20,976.00 500.00,976.00"/>
    </edge>
    <edge id=":001_003_11" function="internal">
        <lane id=":001_003_11_0" index="0" speed="11.18" length="32.49" width="3.20" shape="527.20,976.00 520.07,973.88 513.07,968.53 507.72,961.53 505.60,954.40"/>
    </edge>
    <edge id=":001_003_12" function="internal">
        <lane id=":001_003_12_0" index="0" speed="8.00" length="14.19" width="3.20" shape="527.20,972.80 523.35,973.35 520.60,975.00 518.95,977.75 518.40,981.60"/>
    </edge>
    <edge id=":001_003_13" function="internal">
        <lane id=":001_003_13_0" index="0" speed="11.18" length="27.20" width="3.20" shape="527.20,972.80 500.00,972.80"/>
    </edge>
    <edge id=":001_003_14" function="internal">
        <lane id=":001_003_14_0" index="0" speed="11.07" length="28.10" width="3.20" shape="527.20,972.80 520.67,971.14 514.75,966.85 510.46,960.93 508.80,954.40"/>
    </edge>
    <edge id=":001_003_15" function="internal">
        <lane id=":001_003_15_0" index="0" speed="9.26" length="19.35" width="3.20" shape="527.20,969.60 521.95,970.35 518.20,972.60 515.95,976.35 515.20,981.60"/>
    </edge>
    <edge id=":001_003_16" function="internal">
        <lane id=":001_003_16_0" index="0" speed="11.18" length="27.20" width="3.20" shape="527.20,969.60 500.00,969.60"/>
    </edge>
    <edge id=":001_003_17" function="internal">
        <lane id=":001_003_17_0" index="0" speed="10.10" length="23.22" width="3.20" shape="527.20,969.60 521.80,968.23 516.91,964.69 513.37,959.80 512.00,954.40"/>
    </edge>
    <edge id=":001_003_18" function="internal">
        <lane id=":001_003_18_0" index="0" speed="6.51" length="9.03" width="3.20" shape="521.60,954.40 521.95,956.85 523.00,958.60 524.75,959.65 527.20,960.00"/>
    </edge>
    <edge id=":001_003_19" function="internal">
        <lane id=":001_003_19_0" index="0" speed="11.18" length="27.20" width="3.20" shape="521.60,954.40 521.60,981.60"/>
    </edge>
    <edge id=":001_003_20" function="internal">
        <lane id=":001_003_20_0" index="0" speed="11.18" length="5.83" width="3.20" shape="521.60,954.40 519.93,959.98"/>
    </edge>
    <edge id=":001_003_21" function="internal">
        <lane id=":001_003_21_0" index="0" speed="8.00" length="4.07" width="3.20" shape="518.40,954.40 518.95,958.25 519.04,958.40"/>
    </edge>
    <edge id=":001_003_22" function="internal">
        <lane id=":001_003_22_0" index="0" speed="11.18" length="27.20" width="3.20" shape="518.40,954.40 518.40,981.60"/>
    </edge>
    <edge id=":001_003_23" function="internal">
        <lane id=":001_003_23_0" index="0" speed="11.07" length="8.84" width="3.20" shape="518.40,954.40 516.74,960.93 515.51,962.63"/>
    </edge>
    <edge id=":001_003_24" function="internal">
        <lane id=":001_003_24_0" index="0" speed="9.26" length="5.01" width="3.20" shape="515.20,954.40 515.91,959.36"/>
    </edge>
    <edge id=":001_003_25" function="internal">
        <lane id=":001_003_25_0" index="0" speed="11.18" length="27.20" width="3.20" shape="515.20,954.40 515.20,981.60"/>
    </edge>
    <edge id=":001_003_26" function="internal">
        <lane id=":001_003_26_0" index="0" speed="10.10" length="2.96" width="3.20" shape="515.20,954.40 514.47,957.27"/>
    </edge>
    <edge id=":001_003_41" function="internal">
        <lane id=":001_003_41_0" index="0" speed="11.18" length="26.67" width="3.20" shape="519.93,959.98 519.47,961.53 514.13,968.53 507.12,973.88 500.00,976.00"/>
    </edge>
    <edge id=":001_003_42" function="internal">
        <lane id=":001_003_42_0" index="0" speed="8.00" length="10.13" width="3.20" shape="519.04,958.40 520.60,961.00 523.35,962.65 527.20,963.20"/>
    </edge>
    <edge id=":001_003_43" function="internal">
        <lane id=":001_003_43_0" index="0" speed="11.07" length="19.27" width="3.20" shape="515.51,962.63 512.45,966.85 506.53,971.14 500.00,972.80"/>
    </edge>
    <edge id=":001_003_44" function="internal">
        <lane id=":001_003_44_0" index="0" speed="9.26" length="14.34" width="3.20" shape="515.91,959.36 515.95,959.65 518.20,963.40 521.95,965.65 527.20,966.40"/>
    </edge>
    <edge id=":001_003_45" function="internal">
        <lane id=":001_003_45_0" index="0" speed="10.10" length="20.25" width="3.20" shape="514.47,957.27 513.83,959.80 510.29,964.69 505.40,968.23 500.00,969.60"/>
    </edge>
    <edge id=":001_003_27" function="internal">
        <lane id=":001_003_27_0" index="0" speed="6.51" length="9.03" width="3.20" shape="500.00,960.00 502.45,959.65 504.20,958.60 505.25,956.85 505.60,954.40"/>
    </edge>
    <edge id=":001_003_28" function="internal">
        <lane id=":001_003_28_0" index="0" speed="11.18" length="27.20" width="3.20" shape="500.00,960.00 527.20,960.00"/>
    </edge>
    <edge id=":001_003_29" function="internal">
        <lane id=":001_003_29_0" index="0" speed="11.18" length="32.49" width="3.20" shape="500.00,960.00 507.12,962.12 514.13,967.47 519.47,974.47 521.60,981.60"/>
    </edge>
    <edge id=":001_003_30" function="internal">
        <lane id=":001_003_30_0" index="0" speed="8.00" length="14.19" width="3.20" shape="500.00,963.20 503.85,962.65 506.60,961.00 508.25,958.25 508.80,954.40"/>
    </edge>
    <edge id=":001_003_31" function="internal">
        <lane id=":001_003_31_0" index="0" speed="11.18" length="27.20" width="3.20" shape="500.00,963.20 527.20,963.20"/>
    </edge>
    <edge id=":001_003_32" function="internal">
        <lane id=":001_003_32_0" index="0" speed="11.07" length="28.10" width="3.20" shape="500.00,963.20 506.53,964.86 512.45,969.15 516.74,975.07 518.40,981.60"/>
    </edge>
    <edge id=":001_003_33" function="internal">
        <lane id=":001_003_33_0" index="0" speed="9.26" length="19.35" width="3.20" shape="500.00,966.40 505.25,965.65 509.00,963.40 511.25,959.65 512.00,954.40"/>
    </edge>
    <edge id=":001_003_34" function="internal">
        <lane id=":001_003_34_0" index="0" speed="11.18" length="27.20" width="3.20" shape="500.00,966.40 527.20,966.40"/>
    </edge>
    <edge id=":001_003_35" function="internal">
        <lane id=":001_003_35_0" index="0" speed="10.10" length="23.22" width="3.20" shape="500.00,966.40 505.40,967.77 510.29,971.31 513.83,976.20 515.20,981.60"/>
    </edge>
    <edge id=":001_004_0" function="internal">
        <lane id=":001_004_0_0" index="0" speed="6.51" length="9.03" width="3.20" shape="505.60,1208.80 505.25,1206.35 504.20,1204.60 502.45,1203.55 500.00,1203.20"/>
    </edge>
    <edge id=":001_004_1" function="internal">
        <lane id=":001_004_1_0" index="0" speed="11.18" length="27.20" width="3.20" shape="505.60,1208.80 505.60,1181.60"/>
    </edge>
    <edge id=":001_004_2" function="internal">
        <lane id=":001_004_2_0" index="0" speed="11.18" length="5.83" width="3.20" shape="505.60,1208.80 507.27,1203.22"/>
    </edge>
    <edge id=":001_004_3" function="internal">
        <lane id=":001_004_3_0" index="0" speed="8.00" length="4.07" width="3.20" shape="508.80,1208.80 508.25,1204.95 508.16,1204.80"/>
    </edge>
    <edge id=":001_004_4" function="internal">