<connections>
<connection from="001_001_1" to="001_002_4" fromLane="0" toLane="0"/>
<connection from="001_001_1" to="002_001_1" fromLane="0" toLane="0"/>
<connection from="001_001_1" to="001_000_2" fromLane="0" toLane="0"/>
<connection from="001_001_2" to="000_001_3" fromLane="0" toLane="0"/>
<connection from="001_001_2" to="001_000_2" fromLane="0" toLane="0"/>
<connection from="001_001_2" to="002_001_1" fromLane="0" toLane="0"/>
<connection from="001_001_3" to="001_000_2" fromLane="0" toLane="0"/>
<connection from="001_001_3" to="000_001_3" fromLane="0" toLane="0"/>
<connection from="001_001_3" to="001_002_4" fromLane="0" toLane="0"/>
<connection from="001_001_4" to="000_001_3" fromLane="0" toLane="0"/>
<connection from="001_001_4" to="001_002_4" fromLane="0" toLane="0"/>
<connection from="001_001_4" to="002_001_1" fromLane="0" toLane="0"/>
<connection from="001_001_1" to="001_002_4" fromLane="1" toLane="1"/>
<connection from="001_001_1" to="002_001_1" fromLane="1" toLane="1"/>
<connection from="001_001_1" to="001_000_2" fromLane="1" toLane="1"/>
<connection from="001_001_2" to="000_001_3" fromLane="1" toLane="1"/>
<connection from="001_001_2" to="001_000_2" fromLane="1" toLane="1"/>
<connection from="001_001_2" to="002_001_1" fromLane="1" toLane="1"/>
<connection from="001_001_3" to="001_000_2" fromLane="1" toLane="1"/>
<connection from="001_001_3" to="000_001_3" fromLane="1" toLane="1"/>
<connection from="001_001_3" to="001_002_4" fromLane="1" toLane="1"/>
<connection from="001_001_4" to="000_001_3" fromLane="1" toLane="1"/>
<connection from="001_001_4" to="001_002_4" fromLane="1" toLane="1"/>
<connection from="001_001_4" to="002_001_1" fromLane="1" toLane="1"/>
<connection from="001_001_1" to="001_002_4" fromLane="2" toLane="2"/>
<connection from="001_001_1" to="002_001_1" fromLane="2" toLane="2"/>
<connection from="001_001_1" to="001_000_2" fromLane="2" toLane="2"/>
<connection from="001_001_2" to="000_001_3" fromLane="2" toLane="2"/>
<connection from="001_001_2" to="001_000_2" fromLane="2" toLane="2"/>
<connection from="001_001_2" to="002_001_1" fromLane="2" toLane="2"/>
<connection from="001_001_3" to="001_000_2" fromLane="2" toLane="2"/>
<connection from="001_001_3" to="000_001_3" fromLane="2" toLane="2"/>
<connection from="001_001_3" to="001_002_4" fromLane="2" toLane="2"/>
<connection from="001_001_4" to="000_001_3" fromLane="2" toLane="2"/>
<connection from="001_001_4" to="001_002_4" fromLane="2" toLane="2"/>
<connection from="001_001_4" to="002_001_1" fromLane="2" toLane="2"/>
<connection from="002_001_1" to="002_002_4" fromLane="0" toLane="0"/>
<connection from="002_001_1" to="003_001_1" fromLane="0" toLane="0"/>
<connection from="002_001_1" to="002_000_2" fromLane="0" toLane="0"/>
<connection from="002_001_2" to="001_001_3" fromLane="0" toLane="0"/>
<connection from="002_001_2" to="002_000_2" fromLane="0" toLane="0"/>
<connection from="002_001_2" to="003_001_1" fromLane="0" toLane="0"/>
<connection from="002_001_3" to="002_000_2" fromLane="0" toLane="0"/>
<connection from="002_001_3" to="001_001_3" fromLane="0" toLane="0"/>
<connection from="002_001_3" to="002_002_4" fromLane="0" toLane="0"/>
<connection from="002_001_4" to="001_001_3" fromLane="0" toLane="0"/>
<connection from="002_001_4" to="002_002_4" fromLane="0" toLane="0"/>
<connection from="002_001_4" to="003_001_1" fromLane="0" toLane="0"/>
<connection from="002_001_1" to="002_002_4" fromLane="1" toLane="1"/>
<connection from="002_001_1" to="003_001_1" fromLane="1" toLane="1"/>
<connection from="002_001_1" to="002_000_2" fromLane="1" toLane="1"/>
<connection from="002_001_2" to="001_001_3" fromLane="1" toLane="1"/>
<connection from="002_001_2" to="002_000_2" fromLane="1" toLane="1"/>
<connection from="002_001_2" to="003_001_1" fromLane="1" toLane="1"/>
<connection from="002_001_3" to="002_000_2" fromLane="1" toLane="1"/>
<connection from="002_001_3" to="001_001_3" fromLane="1" toLane="1"/>
<connection from="002_001_3" to="002_002_4" fromLane="1" toLane="1"/>
<connection from="002_001_4" to="001_001_3" fromLane="1" toLane="1"/>
<connection from="002_001_4" to="002_002_4" fromLane="1" toLane="1"/>
<connection from="002_001_4" to="003_001_1" fromLane="1" toLane="1"/>
<connection from="002_001_1" to="002_002_4" fromLane="2" toLane="2"/>
<connection from="002_001_1" to="003_001_1" fromLane="2" toLane="2"/>
<connection from="002_001_1" to="002_000_2" fromLane="2" toLane="2"/>
<connection from="002_001_2" to="001_001_3" fromLane="2" toLane="2"/>
<connection from="002_001_2" to="002_000_2" fromLane="2" toLane="2"/>
<connection from="002_001_2" to="003_001_1" fromLane="2" toLane="2"/>
<connection from="002_001_3" to="002_000_2" fromLane="2" toLane="2"/>
<connection from="002_001_3" to="001_001_3" fromLane="2" toLane="2"/>
<connection from="002_001_3" to="002_002_4" fromLane="2" toLane="2"/>
<connection from="002_001_4" to="001_001_3" fromLane="2" toLane="2"/>
<connection from="002_001_4" to="002_002_4" fromLane="2" toLane="2"/>
<connection from="002_001_4" to="003_001_1" fromLane="2" toLane="2"/>
<connection from="003_001_1" to="003_002_4" fromLane="0" toLane="0"/>
<connection from="003_001_1" to="004_001_1" fromLane="0" toLane="0"/>
<connection from="003_001_1" to="003_000_2" fromLane="0" toLane="0"/>
<connection from="003_001_2" to="002_001_3" fromLane="0" toLane="0"/>
<connection from="003_001_2" to="003_000_2" fromLane="0" toLane="0"/>
<connection from="003_001_2" to="004_001_1" fromLane="0" toLane="0"/>
<connection from="003_001_3" to="003_000_2" fromLane="0" toLane="0"/>
<connection from="003_001_3" to="002_001_3" fromLane="0" toLane="0"/>
<connection from="003_001_3" to="003_002_4" fromLane="0" toLane="0"/>
<connection from="003_001_4" to="002_001_3" fromLane="0" toLane="0"/>
<connection from="003_001_4" to="003_002_4" fromLane="0" toLane="0"/>
<connection from="003_001_4" to="004_001_1" fromLane="0" toLane="0"/>
<connection from="003_001_1" to="003_002_4" fromLane="1" toLane="1"/>
<connection from="003_001_1" to="004_001_1" fromLane="1" toLane="1"/>
<connection from="003_001_1" to="003_000_2" fromLane="1" toLane="1"/>
<connection from="003_001_2" to="002_001_3" fromLane="1" toLane="1"/>
<connection from="003_001_2" to="003_000_2" fromLane="1" toLane="1"/>
<connection from="003_001_2" to="004_001_1" fromLane="1" toLane="1"/>
<connection from="003_001_3" to="003_000_2" fromLane="1" toLane="1"/>
<connection from="003_001_3" to="002_001_3" fromLane="1" toLane="1"/>
<connection from="003_001_3" to="003_002_4" fromLane="1" toLane="1"/>
<connection from="003_001_4" to="002_001_3" fromLane="1" toLane="1"/>
<connection from="003_001_4" to="003_002_4" fromLane="1" toLane="1"/>
<connection from="003_001_4" to="004_001_1" fromLane="1" toLane="1"/>
<connection from="003_001_1" to="003_002_4" fromLane="2" toLane="2"/>
<connection from="003_001_1" to="004_001_1" fromLane="2" toLane="2"/>
<connection from="003_001_1" to="003_000_2" fromLane="2" toLane="2"/>
<connection from="003_001_2" to="002_001_3" fromLane="2" toLane="2"/>
<connection from="003_001_2" to="003_000_2" fromLane="2" toLane="2"/>
<connection from="003_001_2" to="004_001_1" fromLane="2" toLane="2"/>
<connection from="003_001_3" to="003_000_2" fromLane="2" toLane="2"/>
<connection from="003_001_3" to="002_001_3" fromLane="2" toLane="2"/>
<connection from="003_001_3" to="003_002_4" fromLane="2" toLane="2"/>
<connection from="003_001_4" to="002_001_3" fromLane="2" toLane="2"/>
<connection from="003_001_4" to="003_002_4" fromLane="2" toLane="2"/>
<connection from="003_001_4" to="004_001_1" fromLane="2" toLane="2"/>
<connection from="004_001_1" to="004_002_4" fromLane="0" toLane="0"/>
<connection from="004_001_1" to="005_001_1" fromLane="0" toLane="0"/>
<connection from="004_001_1" to="004_000_2" fromLane="0" toLane="0"/>
<connection from="004_001_2" to="003_001_3" fromLane="0" toLane="0"/>
<connection from="004_001_2" to="004_000_2" fromLane="0" toLane="0"/>
<connection from="004_001_2" to="005_001_1" fromLane="0" toLane="0"/>
<connection from="004_001_3" to="004_000_2" fromLane="0" toLane="0"/>
<connection from="004_001_3" to="003_001_3" fromLane="0" toLane="0"/>
<connection from="004_001_3" to="004_002_4" fromLane="0" toLane="0"/>
<connection from="004_001_4" to="003_001_3" fromLane="0" toLane="0"/>
<connection from="004_001_4" to="004_002_4" fromLane="0" toLane="0"/>
<connection from="004_001_4" to="005_001_1" fromLane="0" toLane="0"/>
<connection from="004_001_1" to="004_002_4" fromLane="1" toLane="1"/>
<connection from="004_001_1" to="005_001_1" fromLane="1" toLane="1"/>
<connection from="004_001_1" to="004_000_2" fromLane="1" toLane="1"/>
<connection from="004_001_2" to="003_001_3" fromLane="1" toLane="1"/>
<connection from="004_001_2" to="004_000_2" fromLane="1" toLane="1"/>
<connection from="004_001_2" to="005_001_1" fromLane="1" toLane="1"/>
<connection from="004_001_3" to="004_000_2" fromLane="1" toLane="1"/>
<connection from="004_001_3" to="003_001_3" fromLane="1" toLane="1"/>
<connection from="004_001_3" to="004_002_4" fromLane="1" toLane="1"/>
<connection from="004_001_4" to="003_001_3" fromLane="1" toLane="1"/>
<connection from="004_001_4" to="004_002_4" fromLane="1" toLane="1"/>
<connection from="004_001_4" to="005_001_1" fromLane="1" toLane="1"/>
<connection from="004_001_1" to="004_002_4" fromLane="2" toLane="2"/>
<connection from="004_001_1" to="005_001_1" fromLane="2" toLane="2"/>
<connection from="004_001_1" to="004_000_2" fromLane="2" toLane="2"/>
<connection from="004_001_2" to="003_001_3" fromLane="2" toLane="2"/>
<connection from="004_001_2" to="004_000_2" fromLane="2" toLane="2"/>
<connection from="004_001_2" to="005_001_1" fromLane="2" toLane="2"/>
<connection from="004_001_3" to="004_000_2" fromLane="2" toLane="2"/>
<connection from="004_001_3" to="003_001_3" fromLane="2" toLane="2"/>
<connection from="004_001_3" to="004_002_4" fromLane="2" toLane="2"/>
<connection from="004_001_4" to="003_001_3" fromLane="2" toLane="2"/>
<connection from="004_001_4" to="004_002_4" fromLane="2" toLane="2"/>
<connection from="004_001_4" to="005_001_1" fromLane="2" toLane="2"/>
<connection from="005_001_1" to="005_002_4" fromLane="0" toLane="0"/>
<connection from="005_001_1" to="006_001_1" fromLane="0" toLane="0"/>
<connection from="005_001_1" to="005_000_2" fromLane="0" toLane="0"/>
<connection from="005_001_2" to="004_001_3" fromLane="0" toLane="0"/>
<connection from="005_001_2" to="005_000_2" fromLane="0" toLane="0"/>
<connection from="005_001_2" to="006_001_1" fromLane="0" toLane="0"/>
<connection from="005_001_3" to="005_000_2" fromLane="0" toLane="0"/>
<connection from="005_001_3" to="004_001_3" fromLane="0" toLane="0"/>
<connection from="005_001_3" to="005_002_4" fromLane="0" toLane="0"/>
<connection from="005_001_4" to="004_001_3" fromLane="0" toLane="0"/>
<connection from="005_001_4" to="005_002_4" fromLane="0" toLane="0"/>
<connection from="005_001_4" to="006_001_1" fromLane="0" toLane="0"/>
<connection from="005_001_1" to="005_002_4" fromLane="1" toLane="1"/>
<connection from="005_001_1" to="006_001_1" fromLane="1" toLane="1"/>
<connection from="005_001_1" to="005_000_2" fromLane="1" toLane="1"/>
<connection from="005_001_2" to="004_001_3" fromLane="1" toLane="1"/>
<connection from="005_001_2" to="005_000_2" fromLane="1" toLane="1"/>
<connection from="005_001_2" to="006_001_1" fromLane="1" toLane="1"/>
<connection from="005_001_3" to="005_000_2" fromLane="1" toLane="1"/>
<connection from="005_001_3" to="004_001_3" fromLane="1" toLane="1"/>
<connection from="005_001_3" to="005_002_4" fromLane="1" toLane="1"/>
<connection from="005_001_4" to="004_001_3" fromLane="1" toLane="1"/>
<connection from="005_001_4" to="005_002_4" fromLane="1" toLane="1"/>
<connection from="005_001_4" to="006_001_1" fromLane="1" toLane="1"/>
<connection from="005_001_1" to="005_002_4" fromLane="2" toLane="2"/>
<connection from="005_001_1" to="006_001_1" fromLane="2" toLane="2"/>
<connection from="005_001_1" to="005_000_2" fromLane="2" toLane="2"/>
<connection from="005_001_2" to="004_001_3" fromLane="2" toLane="2"/>
<connection from="005_001_2" to="005_000_2" fromLane="2" toLane="2"/>
<connection from="005_001_2" to="006_001_1" fromLane="2" toLane="2"/>
<connection from="005_001_3" to="005_000_2" fromLane="2" toLane="2"/>
<connection from="005_001_3" to="004_001_3" fromLane="2" toLane="2"/>
<connection from="005_001_3" to="005_002_4" fromLane="2" toLane="2"/>
<connection from="005_001_4" to="004_001_3" fromLane="2" toLane="2"/>
<connection from="005_001_4" to="005_002_4" fromLane="2" toLane="2"/>
<connection from="005_001_4" to="006_001_1" fromLane="2" toLane="2"/>
<connection from="006_001_1" to="006_002_4" fromLane="0" toLane="0"/>
<connection from="006_001_1" to="007_001_1" fromLane="0" toLane="0"/>
<connection from="006_001_1" to="006_000_2" fromLane="0" toLane="0"/>
<connection from="006_001_2" to="005_001_3" fromLane="0" toLane="0"/>
<connection from="006_001_2" to="006_000_2" fromLane="0" toLane="0"/>
<connection from="006_001_2" to="007_001_1" fromLane="0" toLane="0"/>
<connection from="006_001_3" to="006_000_2" fromLane="0" toLane="0"/>
<connection from="006_001_3" to="005_001_3" fromLane="0" toLane="0"/>
<connection from="006_001_3" to="006_002_4" fromLane="0" toLane="0"/>
<connection from="006_001_4" to="005_001_3" fromLane="0" toLane="0"/>
<connection from="006_001_4" to="006_002_4" fromLane="0" toLane="0"/>
<connection from="006_001_4" to="007_001_1" fromLane="0" toLane="0"/>
<connection from="006_001_1" to="006_002_4" fromLane="1" toLane="1"/>
<connection from="006_001_1" to="007_001_1" fromLane="1" toLane="1"/>
<connection from="006_001_1" to="006_000_2" fromLane="1" toLane="1"/>
<connection from="006_001_2" to="005_001_3" fromLane="1" toLane="1"/>
<connection from="006_001_2" to="006_000_2" fromLane="1" toLane="1"/>
<connection from="006_001_2" to="007_001_1" fromLane="1" toLane="1"/>
<connection from="006_001_3" to="006_000_2" fromLane="1" toLane="1"/>
<connection from="006_001_3" to="005_001_3" fromLane="1" toLane="1"/>
<connection from="006_001_3" to="006_002_4" fromLane="1" toLane="1"/>
<connection from="006_001_4" to="005_001_3" fromLane="1" toLane="1"/>
<connection from="006_001_4" to="006_002_4" fromLane="1" toLane="1"/>
<connection from="006_001_4" to="007_001_1" fromLane="1" toLane="1"/>
<connection from="006_001_1" to="006_002_4" fromLane="2" toLane="2"/>
<connection from="006_001_1" to="007_001_1" fromLane="2" toLane="2"/>
<connection from="006_001_1" to="006_000_2" fromLane="2" toLane="2"/>
<connection from="006_001_2" to="005_001_3" fromLane="2" toLane="2"/>
<connection from="006_001_2" to="006_000_2" fromLane="2" toLane="2"/>
<connection from="006_001_2" to="007_001_1" fromLane="2" toLane="2"/>
<connection from="006_001_3" to="006_000_2" fromLane="2" toLane="2"/>
<connection from="006_001_3" to="005_001_3" fromLane="2" toLane="2"/>
<connection from="006_001_3" to="006_002_4" fromLane="2" toLane="2"/>
<connection from="006_001_4" to="005_001_3" fromLane="2" toLane="2"/>
<connection from="006_001_4" to="006_002_4" fromLane="2" toLane="2"/>
<connection from="006_001_4" to="007_001_1" fromLane="2" toLane="2"/>
<connection from="007_001_1" to="007_002_4" fromLane="0" toLane="0"/>
<connection from="007_001_1" to="008_001_1" fromLane="0" toLane="0"/>
<connection from="007_001_1" to="007_000_2" fromLane="0" toLane="0"/>
<connection from="007_001_2" to="006_001_3" fromLane="0" toLane="0"/>
<connection from="007_001_2" to="007_000_2" fromLane="0" toLane="0"/>
<connection from="007_001_2" to="008_001_1" fromLane="0" toLane="0"/>
<connection from="007_001_3" to="007_000_2" fromLane="0" toLane="0"/>
<connection from="007_001_3" to="006_001_3" fromLane="0" toLane="0"/>
<connection from="007_001_3" to="007_002_4" fromLane="0" toLane="0"/>
<connection from="007_001_4" to="006_001_3" fromLane="0" toLane="0"/>
<connection from="007_001_4" to="007_002_4" fromLane="0" toLane="0"/>
<connection from="007_001_4" to="008_001_1" fromLane="0" toLane="0"/>
<connection from="007_001_1" to="007_002_4" fromLane="1" toLane="1"/>
<connection from="007_001_1" to="008_001_1" fromLane="1" toLane="1"/>
<connection from="007_001_1" to="007_000_2" fromLane="1" toLane="1"/>
<connection from="007_001_2" to="006_001_3" fromLane="1" toLane="1"/>
<connection from="007_001_2" to="007_000_2" fromLane="1" toLane="1"/>
<connection from="007_001_2" to="008_001_1" fromLane="1" toLane="1"/>
<connection from="007_001_3" to="007_000_2" fromLane="1" toLane="1"/>
<connection from="007_001_3" to="006_001_3" fromLane="1" toLane="1"/>
<connection from="007_001_3" to="007_002_4" fromLane="1" toLane="1"/>
<connection from="007_001_4" to="006_001_3" fromLane="1" toLane="1"/>
<connection from="007_001_4" to="007_002_4" fromLane="1" toLane="1"/>
<connection from="007_001_4" to="008_001_1" fromLane="1" toLane="1"/>
<connection from="007_001_1" to="007_002_4" fromLane="2" toLane="2"/>
<connection from="007_001_1" to="008_001_1" fromLane="2" toLane="2"/>
<connection from="007_001_1" to="007_000_2" fromLane="2" toLane="2"/>
<connection from="007_001_2" to="006_001_3" fromLane="2" toLane="2"/>
<connection from="007_001_2" to="007_000_2" fromLane="2" toLane="2"/>
<connection from="007_001_2" to="008_001_1" fromLane="2" toLane="2"/>
<connection from="007_001_3" to="007_000_2" fromLane="2" toLane="2"/>
<connection from="007_001_3" to="006_001_3" fromLane="2" toLane="2"/>
<connection from="007_001_3" to="007_002_4" fromLane="2" toLane="2"/>
<connection from="007_001_4" to="006_001_3" fromLane="2" toLane="2"/>
<connection from="007_001_4" to="007_002_4" fromLane="2" toLane="2"/>
<connection from="007_001_4" to="008_001_1" fromLane="2" toLane="2"/>
<connection from="008_001_1" to="008_002_4" fromLane="0" toLane="0"/>
<connection from="008_001_1" to="009_001_1" fromLane="0" toLane="0"/>
<connection from="008_001_1" to="008_000_2" fromLane="0" toLane="0"/>
<connection from="008_001_2" to="007_001_3" fromLane="0" toLane="0"/>
<connection from="008_001_2" to="008_000_2" fromLane="0" toLane="0"/>
<connection from="008_001_2" to="009_001_1" fromLane="0" toLane="0"/>
<connection from="008_001_3" to="008_000_2" fromLane="0" toLane="0"/>
<connection from="008_001_3" to="007_001_3" fromLane="0" toLane="0"/>
<connection from="008_001_3" to="008_002_4" fromLane="0" toLane="0"/>
<connection from="008_001_4" to="007_001_3" fromLane="0" toLane="0"/>
<connection from="008_001_4" to="008_002_4" fromLane="0" toLane="0"/>
<connection from="008_001_4" to="009_001_1" fromLane="0" toLane="0"/>
<connection from="008_001_1" to="008_002_4" fromLane="1" toLane="1"/>
<connection from="008_001_1" to="009_001_1" fromLane="1" toLane="1"/>
<connection from="008_001_1" to="008_000_2" fromLane="1" toLane="1"/>
<connection from="008_001_2" to="007_001_3" fromLane="1" toLane="1"/>
<connection from="008_001_2" to="008_000_2" fromLane="1" toLane="1"/>
<connection from="008_001_2" to="009_001_1" fromLane="1" toLane="1"/>
<connection from="008_001_3" to="008_000_2" fromLane="1" toLane="1"/>
<connection from="008_001_3" to="007_001_3" fromLane="1" toLane="1"/>
<connection from="008_001_3" to="008_002_4" fromLane="1" toLane="1"/>
<connection from="008_001_4" to="007_001_3" fromLane="1" toLane="1"/>
<connection from="008_001_4" to="008_002_4" fromLane="1" toLane="1"/>
<connection from="008_001_4" to="009_001_1" fromLane="1" toLane="1"/>
<connection from="008_001_1" to="008_002_4" fromLane="2" toLane="2"/>
<connection from="008_001_1" to="009_001_1" fromLane="2" toLane="2"/>
<connection from="008_001_1" to="008_000_2" fromLane="2" toLane="2"/>
<connection from="008_001_2" to="007_001_3" fromLane="2" toLane="2"/>
<connection from="008_001_2" to="008_000_2" fromLane="2" toLane="2"/>
<connection from="008_001_2" to="009_001_1" fromLane="2" toLane="2"/>
<connection from="008_001_3" to="008_000_2" fromLane="2" toLane="2"/>
<connection from="008_001_3" to="007_001_3" fromLane="2" toLane="2"/>
<connection from="008_001_3" to="008_002_4" fromLane="2" toLane="2"/>
<connection from="008_001_4" to="007_001_3" fromLane="2" toLane="2"/>
<connection from="008_001_4" to="008_002_4" fromLane="2" toLane="2"/>
<connection from="008_001_4" to="009_001_1" fromLane="2" toLane="2"/>
<connection from="009_001_1" to="009_002_4" fromLane="0" toLane="0"/>
<connection from="009_001_1" to="010_001_1" fromLane="0" toLane="0"/>
<connection from="009_001_1" to="009_000_2" fromLane="0" toLane="0"/>
<connection from="009_001_2" to="008_001_3" fromLane="0" toLane="0"/>
<connection from="009_001_2" to="009_000_2" fromLane="0" toLane="0"/>
<connection from="009_001_2" to="010_001_1" fromLane="0" toLane="0"/>
<connection from="009_001_3" to="009_000_2" fromLane="0" toLane="0"/>
<connection from="009_001_3" to="008_001_3" fromLane="0" toLane="0"/>
<connection from="009_001_3" to="009_002_4" fromLane="0" toLane="0"/>
<connection from="009_001_4" to="008_001_3" fromLane="0" toLane="0"/>
<connection from="009_001_4" to="009_002_4" fromLane="0" toLane="0"/>
<connection from="009_001_4" to="010_001_1" fromLane="0" toLane="0"/>
<connection from="009_001_1" to="009_002_4" fromLane="1" toLane="1"/>
<connection from="009_001_1" to="010_001_1" fromLane="1" toLane="1"/>
<connection from="009_001_1" to="009_000_2" fromLane="1" toLane="1"/>
<connection from="009_001_2" to="008_001_3" fromLane="1" toLane="1"/>
<connection from="009_001_2" to="009_000_2" fromLane="1" toLane="1"/>
<connection from="009_001_2" to="010_001_1" fromLane="1" toLane="1"/>
<connection from="009_001_3" to="009_000_2" fromLane="1" toLane="1"/>
<connection from="009_001_3" to="008_001_3" fromLane="1" toLane="1"/>
<connection from="009_001_3" to="009_002_4" fromLane="1" toLane="1"/>
<connection from="009_001_4" to="008_001_3" fromLane="1" toLane="1"/>
<connection from="009_001_4" to="009_002_4" fromLane="1" toLane="1"/>
<connection from="009_001_4" to="010_001_1" fromLane="1" toLane="1"/>
<connection from="009_001_1" to="009_002_4" fromLane="2" toLane="2"/>
<connection from="009_001_1" to="010_001_1" fromLane="2" toLane="2"/>
<connection from="009_001_1" to="009_000_2" fromLane="2" toLane="2"/>
<connection from="009_001_2" to="008_001_3" fromLane="2" toLane="2"/>
<connection from="009_001_2" to="009_000_2" fromLane="2" toLane="2"/>
<connection from="009_001_2" to="010_001_1" fromLane="2" toLane="2"/>
<connection from="009_001_3" to="009_000_2" fromLane="2" toLane="2"/>
<connection from="009_001_3" to="008_001_3" fromLane="2" toLane="2"/>
<connection from="009_001_3" to="009_002_4" fromLane="2" toLane="2"/>
<connection from="009_001_4" to="008_001_3" fromLane="2" toLane="2"/>
<connection from="009_001_4" to="009_002_4" fromLane="2" toLane="2"/>
<connection from="009_001_4" to="010_001_1" fromLane="2" toLane="2"/>
<connection from="010_001_1" to="010_002_4" fromLane="0" toLane="0"/>
<connection from="010_001_1" to="011_001_1" fromLane="0" toLane="0"/>
<connection from="010_001_1" to="010_000_2" fromLane="0" toLane="0"/>
<connection from="010_001_2" to="009_001_3" fromLane="0" toLane="0"/>
<connection from="010_001_2" to="010_000_2" fromLane="0" toLane="0"/>
<connection from="010_001_2" to="011_001_1" fromLane="0" toLane="0"/>
<connection from="010_001_3" to="010_000_2" fromLane="0" toLane="0"/>
<connection from="010_001_3" to="009_001_3" fromLane="0" toLane="0"/>
<connection from="010_001_3" to="010_002_4" fromLane="0" toLane="0"/>
<connection from="010_001_4" to="009_001_3" fromLane="0" toLane="0"/>
<connection from="010_001_4" to="010_002_4" fromLane="0" toLane="0"/>
<connection from="010_001_4" to="011_001_1" fromLane="0" toLane="0"/>
<connection from="010_001_1" to="010_002_4" fromLane="1" toLane="1"/>
<connection from="010_001_1" to="011_001_1" fromLane="1" toLane="1"/>
<connection from="010_001_1" to="010_000_2" fromLane="1" toLane="1"/>
<connection from="010_001_2" to="009_001_3" fromLane="1" toLane="1"/>
<connection from="010_001_2" to="010_000_2" fromLane="1" toLane="1"/>
<connection from="010_001_2" to="011_001_1" fromLane="1" toLane="1"/>
<connection from="010_001_3" to="010_000_2" fromLane="1" toLane="1"/>
<connection from="010_001_3" to="009_001_3" fromLane="1" toLane="1"/>
<connection from="010_001_3" to="010_002_4" fromLane="1" toLane="1"/>
<connection from="010_001_4" to="009_001_3" fromLane="1" toLane="1"/>
<connection from="010_001_4" to="010_002_4" fromLane="1" toLane="1"/>
<connection from="010_001_4" to="011_001_1" fromLane="1" toLane="1"/>
<connection from="010_001_1" to="010_002_4" fromLane="2" toLane="2"/>
<connection from="010_001_1" to="011_001_1" fromLane="2" toLane="2"/>
<connection from="010_001_1" to="010_000_2" fromLane="2" toLane="2"/>
<connection from="010_001_2" to="009_001_3" fromLane="2" toLane="2"/>
<connection from="010_001_2" to="010_000_2" fromLane="2" toLane="2"/>
<connection from="010_001_2" to="011_001_1" fromLane="2" toLane="2"/>
<connection from="010_001_3" to="010_000_2" fromLane="2" toLane="2"/>
<connection from="010_001_3" to="009_001_3" fromLane="2" toLane="2"/>
<connection from="010_001_3" to="010_002_4" fromLane="2" toLane="2"/>
<connection from="010_001_4" to="009_001_3" fromLane="2" toLane="2"/>
<connection from="010_001_4" to="010_002_4" fromLane="2" toLane="2"/>
<connection from="010_001_4" to="011_001_1" fromLane="2" toLane="2"/>
<connection from="011_001_1" to="011_002_4" fromLane="0" toLane="0"/>
<connection from="011_001_1" to="012_001_1" fromLane="0" toLane="0"/>
<connection from="011_001_1" to="011_000_2" fromLane="0" toLane="0"/>
<connection from="011_001_2" to="010_001_3" fromLane="0" toLane="0"/>
<connection from="011_001_2" to="011_000_2" fromLane="0" toLane="0"/>
<connection from="011_001_2" to="012_001_1" fromLane="0" toLane="0"/>
<connection from="011_001_3" to="011_000_2" fromLane="0" toLane="0"/>
<connection from="011_001_3" to="010_001_3" fromLane="0" toLane="0"/>
<connection from="011_001_3" to="011_002_4" fromLane="0" toLane="0"/>
<connection from="011_001_4" to="010_001_3" fromLane="0" toLane="0"/>
<connection from="011_001_4" to="011_002_4" fromLane="0" toLane="0"/>
<connection from="011_001_4" to="012_001_1" fromLane="0" toLane="0"/>
<connection from="011_001_1" to="011_002_4" fromLane="1" toLane="1"/>
<connection from="011_001_1" to="012_001_1" fromLane="1" toLane="1"/>
<connection from="011_001_1" to="011_000_2" fromLane="1" toLane="1"/>
<connection from="011_001_2" to="010_001_3" fromLane="1" toLane="1"/>
<connection from="011_001_2" to="011_000_2" fromLane="1" toLane="1"/>
<connection from="011_001_2" to="012_001_1" fromLane="1" toLane="1"/>
<connection from="011_001_3" to="011_000_2" fromLane="1" toLane="1"/>
<connection from="011_001_3" to="010_001_3" fromLane="1" toLane="1"/>
<connection from="011_001_3" to="011_002_4" fromLane="1" toLane="1"/>
<connection from="011_001_4" to="010_001_3" fromLane="1" toLane="1"/>
<connection from="011_001_4" to="011_002_4" fromLane="1" toLane="1"/>
<connection from="011_001_4" to="012_001_1" fromLane="1" toLane="1"/>
<connection from="011_001_1" to="011_002_4" fromLane="2" toLane="2"/>
<connection from="011_001_1" to="012_001_1" fromLane="2" toLane="2"/>
<connection from="011_001_1" to="011_000_2" fromLane="2" toLane="2"/>
<connection from="011_001_2" to="010_001_3" fromLane="2" toLane="2"/>
<connection from="011_001_2" to="011_000_2" fromLane="2" toLane="2"/>
<connection from="011_001_2" to="012_001_1" fromLane="2" toLane="2"/>
<connection from="011_001_3" to="011_000_2" fromLane="2" toLane="2"/>
<connection from="011_001_3" to="010_001_3" fromLane="2" toLane="2"/>
<connection from="011_001_3" to="011_002_4" fromLane="2" toLane="2"/>
<connection from="011_001_4" to="010_001_3" fromLane="2" toLane="2"/>
<connection from="011_001_4" to="011_002_4" fromLane="2" toLane="2"/>
<connection from="011_001_4" to="012_001_1" fromLane="2" toLane="2"/>
<connection from="012_001_1" to="012_002_4" fromLane="0" toLane="0"/>
<connection from="012_001_1" to="013_001_1" fromLane="0" toLane="0"/>
<connection from="012_001_1" to="012_000_2" fromLane="0" toLane="0"/>
<connection from="012_001_2" to="011_001_3" fromLane="0" toLane="0"/>
<connection from="012_001_2" to="012_000_2" fromLane="0" toLane="0"/>
<connection from="012_001_2" to="013_001_1" fromLane="0" toLane="0"/>
<connection from="012_001_3" to="012_000_2" fromLane="0" toLane="0"/>
<connection from="012_001_3" to="011_001_3" fromLane="0" toLane="0"/>
<connection from="012_001_3" to="012_002_4" fromLane="0" toLane="0"/>
<connection from="012_001_4" to="011_001_3" fromLane="0" toLane="0"/>
<connection from="012_001_4" to="012_002_4" fromLane="0" toLane="0"/>
<connection from="012_001_4" to="013_001_1" fromLane="0" toLane="0"/>
<connection from="012_001_1" to="012_002_4" fromLane="1" toLane="1"/>
<connection from="012_001_1" to="013_001_1" fromLane="1" toLane="1"/>
<connection from="012_001_1" to="012_000_2" fromLane="1" toLane="1"/>
<connection from="012_001_2" to="011_001_3" fromLane="1" toLane="1"/>
<connection from="012_001_2" to="012_000_2" fromLane="1" toLane="1"/>
<connection from="012_001_2" to="013_001_1" fromLane="1" toLane="1"/>
<connection from="012_001_3" to="012_000_2" fromLane="1" toLane="1"/>
<connection from="012_001_3" to="011_001_3" fromLane="1" toLane="1"/>
<connection from="012_001_3" to="012_002_4" fromLane="1" toLane="1"/>
<connection from="012_001_4" to="011_001_3" fromLane="1" toLane="1"/>
<connection from="012_001_4" to="012_002_4" fromLane="1" toLane="1"/>
<connection from="012_001_4" to="013_001_1" fromLane="1" toLane="1"/>
<connection from="012_001_1" to="012_002_4" fromLane="2" toLane="2"/>
<connection from="012_001_1" to="013_001_1" fromLane="2" toLane="2"/>
<connection from="012_001_1" to="012_000_2" fromLane="2" toLane="2"/>
<connection from="012_001_2" to="011_001_3" fromLane="2" toLane="2"/>
<connection from="012_001_2" to="012_000_2" fromLane="2" toLane="2"/>
<connection from="012_001_2" to="013_001_1" fromLane="2" toLane="2"/>
<connection from="012_001_3" to="012_000_2" fromLane="2" toLane="2"/>
<connection from="012_001_3" to="011_001_3" fromLane="2" toLane="2"/>