<nodes>
<node id="000_001" x="-286.400000" y="227.200000" type="priority" />
<node id="000_002" x="-286.400000" y="454.400000" type="priority" />
<node id="000_003" x="-286.400000" y="681.600000" type="priority" />
<node id="000_004" x="-286.400000" y="908.800000" type="priority" />
<node id="000_005" x="-286.400000" y="1136.000000" type="priority" />
<node id="000_006" x="-286.400000" y="1363.200000" type="priority" />
<node id="000_007" x="-286.400000" y="1590.400000" type="priority" />
<node id="000_008" x="-286.400000" y="1817.600000" type="priority" />
<node id="000_009" x="-286.400000" y="2044.800000" type="priority" />
<node id="001_000" x="227.200000" y="-286.400000" type="priority" />
<node id="001_001" x="227.200000" y="227.200000" type="priority" />
<node id="001_002" x="227.200000" y="454.400000" type="priority" />
<node id="001_003" x="227.200000" y="681.600000" type="priority" />
<node id="001_004" x="227.200000" y="908.800000" type="priority" />
<node id="001_005" x="227.200000" y="1136.000000" type="priority" />
<node id="001_006" x="227.200000" y="1363.200000" type="priority" />
<node id="001_007" x="227.200000" y="1590.400000" type="priority" />
<node id="001_008" x="227.200000" y="1817.600000" type="priority" />
<node id="001_009" x="227.200000" y="2044.800000" type="priority" />
<node id="001_0010" x="227.200000" y="2558.400000" type="priority" />
<node id="002_000" x="454.400000" y="-286.400000" type="priority" />
<node id="002_001" x="454.400000" y="227.200000" type="priority" />
<node id="002_002" x="454.400000" y="454.400000" type="priority" />
<node id="002_003" x="454.400000" y="681.600000" type="priority" />
<node id="002_004" x="454.400000" y="908.800000" type="priority" />
<node id="002_005" x="454.400000" y="1136.000000" type="priority" />
<node id="002_006" x="454.400000" y="1363.200000" type="priority" />
<node id="002_007" x="454.400000" y="1590.400000" type="priority" />
<node id="002_008" x="454.400000" y="1817.600000" type="priority" />
<node id="002_009" x="454.400000" y="2044.800000" type="priority" />
<node id="002_0010" x="454.400000" y="2558.400000" type="priority" />
<node id="003_000" x="681.600000" y="-286.400000" type="priority" />
<node id="003_001" x="681.600000" y="227.200000" type="priority" />
<node id="003_002" x="681.600000" y="454.400000" type="priority" />
<node id="003_003" x="681.600000" y="681.600000" type="priority" />
<node id="003_004" x="681.600000" y="908.800000" type="priority" />
<node id="003_005" x="681.600000" y="1136.000000" type="priority" />
<node id="003_006" x="681.600000" y="1363.200000" type="priority" />
<node id="003_007" x="681.600000" y="1590.400000" type="priority" />
<node id="003_008" x="681.600000" y="1817.600000" type="priority" />
<node id="003_009" x="681.600000" y="2044.800000" type="priority" />
<node id="003_0010" x="681.600000" y="2558.400000" type="priority" />
<node id="004_000" x="908.800000" y="-286.400000" type="priority" />
<node id="004_001" x="908.800000" y="227.200000" type="priority" />
<node id="004_002" x="908.800000" y="454.400000" type="priority" />
<node id="004_003" x="908.800000" y="681.600000" type="priority" />
<node id="004_004" x="908.800000" y="908.800000" type="priority" />
<node id="004_005" x="908.800000" y="1136.000000" type="priority" />
<node id="004_006" x="908.800000" y="1363.200000" type="priority" />
<node id="004_007" x="908.800000" y="1590.400000" type="priority" />
<node id="004_008" x="908.800000" y="1817.600000" type="priority" />
<node id="004_009" x="908.800000" y="2044.800000" type="priority" />
<node id="004_0010" x="908.800000" y="2558.400000" type="priority" />
<node id="005_000" x="1136.000000" y="-286.400000" type="priority" />
<node id="005_001" x="1136.000000" y="227.200000" type="priority" />
<node id="005_002" x="1136.000000" y="454.400000" type="priority" />
<node id="005_003" x="1136.000000" y="681.600000" type="priority" />
<node id="005_004" x="1136.000000" y="908.800000" type="priority" />
<node id="005_005" x="1136.000000" y="1136.000000" type="priority" />
<node id="005_006" x="1136.000000" y="1363.200000" type="priority" />
<node id="005_007" x="1136.000000" y="1590.400000" type="priority" />
<node id="005_008" x="1136.000000" y="1817.600000" type="priority" />
<node id="005_009" x="1136.000000" y="2044.800000" type="priority" />
<node id="005_0010" x="1136.000000" y="2558.400000" type="priority" />
<node id="006_000" x="1363.200000" y="-286.400000" type="priority" />
<node id="006_001" x="1363.200000" y="227.200000" type="priority" />
<node id="006_002" x="1363.200000" y="454.400000" type="priority" />
<node id="006_003" x="1363.200000" y="681.600000" type="priority" />
<node id="006_004" x="1363.200000" y="908.800000" type="priority" />
<node id="006_005" x="1363.200000" y="1136.000000" type="priority" />
<node id="006_006" x="1363.200000" y="1363.200000" type="priority" />
<node id="006_007" x="1363.200000" y="1590.400000" type="priority" />
<node id="006_008" x="1363.200000" y="1817.600000" type="priority" />
<node id="006_009" x="1363.200000" y="2044.800000" type="priority" />
<node id="006_0010" x="1363.200000" y="2558.400000" type="priority" />
<node id="007_000" x="1590.400000" y="-286.400000" type="priority" />
<node id="007_001" x="1590.400000" y="227.200000" type="priority" />
<node id="007_002" x="1590.400000" y="454.400000" type="priority" />
<node id="007_003" x="1590.400000" y="681.600000" type="priority" />
<node id="007_004" x="1590.400000" y="908.800000" type="priority" />
<node id="007_005" x="1590.400000" y="1136.000000" type="priority" />
<node id="007_006" x="1590.400000" y="1363.200000" type="priority" />
<node id="007_007" x="1590.400000" y="1590.400000" type="priority" />
<node id="007_008" x="1590.400000" y="1817.600000" type="priority" />
<node id="007_009" x="1590.400000" y="2044.800000" type="priority" />
<node id="007_0010" x="1590.400000" y="2558.400000" type="priority" />
<node id="008_000" x="1817.600000" y="-286.400000" type="priority" />
<node id="008_001" x="1817.600000" y="227.200000" type="priority" />
<node id="008_002" x="1817.600000" y="454.400000" type="priority" />
<node id="008_003" x="1817.600000" y="681.600000" type="priority" />
<node id="008_004" x="1817.600000" y="908.800000" type="priority" />
<node id="008_005" x="1817.600000" y="1136.000000" type="priority" />
<node id="008_006" x="1817.600000" y="1363.200000" type="priority" />
<node id="008_007" x="1817.600000" y="1590.400000" type="priority" />
<node id="008_008" x="1817.600000" y="1817.600000" type="priority" />
<node id="008_009" x="1817.600000" y="2044.800000" type="priority" />
<node id="008_0010" x="1817.600000" y="2558.400000" type="priority" />
<node id="009_000" x="2044.800000" y="-286.400000" type="priority" />
<node id="009_001" x="2044.800000" y="227.200000" type="priority" />
<node id="009_002" x="2044.800000" y="454.400000" type="priority" />
<node id="009_003" x="2044.800000" y="681.600000" type="priority" />
<node id="009_004" x="2044.800000" y="908.800000" type="priority" />
<node id="009_005" x="2044.800000" y="1136.000000" type="priority" />
<node id="009_006" x="2044.800000" y="1363.200000" type="priority" />
<node id="009_007" x="2044.800000" y="1590.400000" type="priority" />
<node id="009_008" x="2044.800000" y="1817.600000" type="priority" />
<node id="009_009" x="2044.800000" y="2044.800000" type="priority" />
<node id="009_0010" x="2044.800000" y="2558.400000" type="priority" />
<node id="0010_001" x="2558.400000" y="227.200000" type="priority" />
<node id="0010_002" x="2558.400000" y="454.400000" type="priority" />
<node id="0010_003" x="2558.400000" y="681.600000" type="priority" />
<node id="0010_004" x="2558.400000" y="908.800000" type="priority" />
<node id="0010_005" x="2558.400000" y="1136.000000" type="priority" />
<node id="0010_006" x="2558.400000" y="1363.200000" type="priority" />
<node id="0010_007" x="2558.400000" y="1590.400000" type="priority" />
<node id="0010_008" x="2558.400000" y="1817.600000" type="priority" />
<node id="0010_009" x="2558.400000" y="2044.800000" type="priority" />
</nodes>
