<nodes>
<node id="000_001" x="-286.400000" y="227.200000" type="priority" />
<node id="000_002" x="-286.400000" y="454.400000" type="priority" />
<node id="000_003" x="-286.400000" y="681.600000" type="priority" />
<node id="000_004" x="-286.400000" y="908.800000" type="priority" />
<node id="000_005" x="-286.400000" y="1136.000000" type="priority" />
<node id="000_006" x="-286.400000" y="1363.200000" type="priority" />
<node id="000_007" x="-286.400000" y="1590.400000" type="priority" />
<node id="000_008" x="-286.400000" y="1817.600000" type="priority" />
<node id="000_009" x="-286.400000" y="2044.800000" type="priority" />
<node id="000_010" x="-286.400000" y="2272.000000" type="priority" />
<node id="000_011" x="-286.400000" y="2499.200000" type="priority" />
<node id="000_012" x="-286.400000" y="2726.400000" type="priority" />
<node id="000_013" x="-286.400000" y="2953.600000" type="priority" />
<node id="000_014" x="-286.400000" y="3180.800000" type="priority" />
<node id="000_015" x="-286.400000" y="3408.000000" type="priority" />
<node id="000_016" x="-286.400000" y="3635.200000" type="priority" />
<node id="000_017" x="-286.400000" y="3862.400000" type="priority" />
<node id="000_018" x="-286.400000" y="4089.600000" type="priority" />
<node id="000_019" x="-286.400000" y="4316.800000" type="priority" />
<node id="001_000" x="227.200000" y="-286.400000" type="priority" />
<node id="001_001" x="227.200000" y="227.200000" type="priority" />
<node id="001_002" x="227.200000" y="454.400000" type="priority" />
<node id="001_003" x="227.200000" y="681.600000" type="priority" />
<node id="001_004" x="227.200000" y="908.800000" type="priority" />
<node id="001_005" x="227.200000" y="1136.000000" type="priority" />
<node id="001_006" x="227.200000" y="1363.200000" type="priority" />
<node id="001_007" x="227.200000" y="1590.400000" type="priority" />
<node id="001_008" x="227.200000" y="1817.600000" type="priority" />
<node id="001_009" x="227.200000" y="2044.800000" type="priority" />
<node id="001_010" x="227.200000" y="2272.000000" type="priority" />
<node id="001_011" x="227.200000" y="2499.200000" type="priority" />
<node id="001_012" x="227.200000" y="2726.400000" type="priority" />
<node id="001_013" x="227.200000" y="2953.600000" type="priority" />
<node id="001_014" x="227.200000" y="3180.800000" type="priority" />
<node id="001_015" x="227.200000" y="3408.000000" type="priority" />
<node id="001_016" x="227.200000" y="3635.200000" type="priority" />
<node id="001_017" x="227.200000" y="3862.400000" type="priority" />
<node id="001_018" x="227.200000" y="4089.600000" type="priority" />
<node id="001_019" x="227.200000" y="4316.800000" type="priority" />
<node id="001_020" x="227.200000" y="4830.400000" type="priority" />
<node id="002_000" x="454.400000" y="-286.400000" type="priority" />
<node id="002_001" x="454.400000" y="227.200000" type="priority" />
<node id="002_002" x="454.400000" y="454.400000" type="priority" />
<node id="002_003" x="454.400000" y="681.600000" type="priority" />
<node id="002_004" x="454.400000" y="908.800000" type="priority" />
<node id="002_005" x="454.400000" y="1136.000000" type="priority" />
<node id="002_006" x="454.400000" y="1363.200000" type="priority" />
<node id="002_007" x="454.400000" y="1590.400000" type="priority" />
<node id="002_008" x="454.400000" y="1817.600000" type="priority" />
<node id="002_009" x="454.400000" y="2044.800000" type="priority" />
<node id="002_010" x="454.400000" y="2272.000000" type="priority" />
<node id="002_011" x="454.400000" y="2499.200000" type="priority" />
<node id="002_012" x="454.400000" y="2726.400000" type="priority" />
<node id="002_013" x="454.400000" y="2953.600000" type="priority" />
<node id="002_014" x="454.400000" y="3180.800000" type="priority" />
<node id="002_015" x="454.400000" y="3408.000000" type="priority" />
<node id="002_016" x="454.400000" y="3635.200000" type="priority" />
<node id="002_017" x="454.400000" y="3862.400000" type="priority" />
<node id="002_018" x="454.400000" y="4089.600000" type="priority" />
<node id="002_019" x="454.400000" y="4316.800000" type="priority" />
<node id="002_020" x="454.400000" y="4830.400000" type="priority" />
<node id="003_000" x="681.600000" y="-286.400000" type="priority" />
<node id="003_001" x="681.600000" y="227.200000" type="priority" />
<node id="003_002" x="681.600000" y="454.400000" type="priority" />
<node id="003_003" x="681.600000" y="681.600000" type="priority" />
<node id="003_004" x="681.600000" y="908.800000" type="priority" />
<node id="003_005" x="681.600000" y="1136.000000" type="priority" />
<node id="003_006" x="681.600000" y="1363.200000" type="priority" />
<node id="003_007" x="681.600000" y="1590.400000" type="priority" />
<node id="003_008" x="681.600000" y="1817.600000" type="priority" />
<node id="003_009" x="681.600000" y="2044.800000" type="priority" />
<node id="003_010" x="681.600000" y="2272.000000" type="priority" />
<node id="003_011" x="681.600000" y="2499.200000" type="priority" />
<node id="003_012" x="681.600000" y="2726.400000" type="priority" />
<node id="003_013" x="681.600000" y="2953.600000" type="priority" />
<node id="003_014" x="681.600000" y="3180.800000" type="priority" />
<node id="003_015" x="681.600000" y="3408.000000" type="priority" />
<node id="003_016" x="681.600000" y="3635.200000" type="priority" />
<node id="003_017" x="681.600000" y="3862.400000" type="priority" />
<node id="003_018" x="681.600000" y="4089.600000" type="priority" />
<node id="003_019" x="681.600000" y="4316.800000" type="priority" />
<node id="003_020" x="681.600000" y="4830.400000" type="priority" />
<node id="004_000" x="908.800000" y="-286.400000" type="priority" />
<node id="004_001" x="908.800000" y="227.200000" type="priority" />
<node id="004_002" x="908.800000" y="454.400000" type="priority" />
<node id="004_003" x="908.800000" y="681.600000" type="priority" />
<node id="004_004" x="908.800000" y="908.800000" type="priority" />
<node id="004_005" x="908.800000" y="1136.000000" type="priority" />
<node id="004_006" x="908.800000" y="1363.200000" type="priority" />
<node id="004_007" x="908.800000" y="1590.400000" type="priority" />
<node id="004_008" x="908.800000" y="1817.600000" type="priority" />
<node id="004_009" x="908.800000" y="2044.800000" type="priority" />
<node id="004_010" x="908.800000" y="2272.000000" type="priority" />
<node id="004_011" x="908.800000" y="2499.200000" type="priority" />
<node id="004_012" x="908.800000" y="2726.400000" type="priority" />
<node id="004_013" x="908.800000" y="2953.600000" type="priority" />
<node id="004_014" x="908.800000" y="3180.800000" type="priority" />
<node id="004_015" x="908.800000" y="3408.000000" type="priority" />
<node id="004_016" x="908.800000" y="3635.200000" type="priority" />
<node id="004_017" x="908.800000" y="3862.400000" type="priority" />
<node id="004_018" x="908.800000" y="4089.600000" type="priority" />
<node id="004_019" x="908.800000" y="4316.800000" type="priority" />
<node id="004_020" x="908.800000" y="4830.400000" type="priority" />
<node id="005_000" x="1136.000000" y="-286.400000" type="priority" />
<node id="005_001" x="1136.000000" y="227.200000" type="priority" />
<node id="005_002" x="1136.000000" y="454.400000" type="priority" />
<node id="005_003" x="1136.000000" y="681.600000" type="priority" />
<node id="005_004" x="1136.000000" y="908.800000" type="priority" />
<node id="005_005" x="1136.000000" y="1136.000000" type="priority" />
<node id="005_006" x="1136.000000" y="1363.200000" type="priority" />
<node id="005_007" x="1136.000000" y="1590.400000" type="priority" />
<node id="005_008" x="1136.000000" y="1817.600000" type="priority" />
<node id="005_009" x="1136.000000" y="2044.800000" type="priority" />
<node id="005_010" x="1136.000000" y="2272.000000" type="priority" />
<node id="005_011" x="1136.000000" y="2499.200000" type="priority" />
<node id="005_012" x="1136.000000" y="2726.400000" type="priority" />
<node id="005_013" x="1136.000000" y="2953.600000" type="priority" />
<node id="005_014" x="1136.000000" y="3180.800000" type="priority" />
<node id="005_015" x="1136.000000" y="3408.000000" type="priority" />
<node id="005_016" x="1136.000000" y="3635.200000" type="priority" />
<node id="005_017" x="1136.000000" y="3862.400000" type="priority" />
<node id="005_018" x="1136.000000" y="4089.600000" type="priority" />
<node id="005_019" x="1136.000000" y="4316.800000" type="priority" />
<node id="005_020" x="1136.000000" y="4830.400000" type="priority" />
<node id="006_000" x="1363.200000" y="-286.400000" type="priority" />
<node id="006_001" x="1363.200000" y="227.200000" type="priority" />
<node id="006_002" x="1363.200000" y="454.400000" type="priority" />
<node id="006_003" x="1363.200000" y="681.600000" type="priority" />
<node id="006_004" x="1363.200000" y="908.800000" type="priority" />
<node id="006_005" x="1363.200000" y="1136.000000" type="priority" />
<node id="006_006" x="1363.200000" y="1363.200000" type="priority" />
<node id="006_007" x="1363.200000" y="1590.400000" type="priority" />
<node id="006_008" x="1363.200000" y="1817.600000" type="priority" />
<node id="006_009" x="1363.200000" y="2044.800000" type="priority" />
<node id="006_010" x="1363.200000" y="2272.000000" type="priority" />
<node id="006_011" x="1363.200000" y="2499.200000" type="priority" />
<node id="006_012" x="1363.200000" y="2726.400000" type="priority" />
<node id="006_013" x="1363.200000" y="2953.600000" type="priority" />
<node id="006_014" x="1363.200000" y="3180.800000" type="priority" />
<node id="006_015" x="1363.200000" y="3408.000000" type="priority" />
<node id="006_016" x="1363.200000" y="3635.200000" type="priority" />
<node id="006_017" x="1363.200000" y="3862.400000" type="priority" />
<node id="006_018" x="1363.200000" y="4089.600000" type="priority" />
<node id="006_019" x="1363.200000" y="4316.800000" type="priority" />
<node id="006_020" x="1363.200000" y="4830.400000" type="priority" />
<node id="007_000" x="1590.400000" y="-286.400000" type="priority" />
<node id="007_001" x="1590.400000" y="227.200000" type="priority" />
<node id="007_002" x="1590.400000" y="454.400000" type="priority" />
<node id="007_003" x="1590.400000" y="681.600000" type="priority" />
<node id="007_004" x="1590.400000" y="908.800000" type="priority" />
<node id="007_005" x="1590.400000" y="1136.000000" type="priority" />
<node id="007_006" x="1590.400000" y="1363.200000" type="priority" />
<node id="007_007" x="1590.400000" y="1590.400000" type="priority" />
<node id="007_008" x="1590.400000" y="1817.600000" type="priority" />
<node id="007_009" x="1590.400000" y="2044.800000" type="priority" />
<node id="007_010" x="1590.400000" y="2272.000000" type="priority" />
<node id="007_011" x="1590.400000" y="2499.200000" type="priority" />
<node id="007_012" x="1590.400000" y="2726.400000" type="priority" />
<node id="007_013" x="1590.400000" y="2953.600000" type="priority" />
<node id="007_014" x="1590.400000" y="3180.800000" type="priority" />
<node id="007_015" x="1590.400000" y="3408.000000" type="priority" />
<node id="007_016" x="1590.400000" y="3635.200000" type="priority" />
<node id="007_017" x="1590.400000" y="3862.400000" type="priority" />
<node id="007_018" x="1590.400000" y="4089.600000" type="priority" />
<node id="007_019" x="1590.400000" y="4316.800000" type="priority" />
<node id="007_020" x="1590.400000" y="4830.400000" type="priority" />
<node id="008_000" x="1817.600000" y="-286.400000" type="priority" />
<node id="008_001" x="1817.600000" y="227.200000" type="priority" />
<node id="008_002" x="1817.600000" y="454.400000" type="priority" />
<node id="008_003" x="1817.600000" y="681.600000" type="priority" />
<node id="008_004" x="1817.600000" y="908.800000" type="priority" />
<node id="008_005" x="1817.600000" y="1136.000000" type="priority" />
<node id="008_006" x="1817.600000" y="1363.200000" type="priority" />
<node id="008_007" x="1817.600000" y="1590.400000" type="priority" />
<node id="008_008" x="1817.600000" y="1817.600000" type="priority" />
<node id="008_009" x="1817.600000" y="2044.800000" type="priority" />
<node id="008_010" x="1817.600000" y="2272.000000" type="priority" />
<node id="008_011" x="1817.600000" y="2499.200000" type="priority" />
<node id="008_012" x="1817.600000" y="2726.400000" type="priority" />
<node id="008_013" x="1817.600000" y="2953.600000" type="priority" />
<node id="008_014" x="1817.600000" y="3180.800000" type="priority" />
<node id="008_015" x="1817.600000" y="3408.000000" type="priority" />
<node id="008_016" x="1817.600000" y="3635.200000" type="priority" />
<node id="008_017" x="1817.600000" y="3862.400000" type="priority" />
<node id="008_018" x="1817.600000" y="4089.600000" type="priority" />
<node id="008_019" x="1817.600000" y="4316.800000" type="priority" />
<node id="008_020" x="1817.600000" y="4830.400000" type="priority" />
<node id="009_000" x="2044.800000" y="-286.400000" type="priority" />
<node id="009_001" x="2044.800000" y="227.200000" type="priority" />
<node id="009_002" x="2044.800000" y="454.400000" type="priority" />
<node id="009_003" x="2044.800000" y="681.600000" type="priority" />
<node id="009_004" x="2044.800000" y="908.800000" type="priority" />
<node id="009_005" x="2044.800000" y="1136.000000" type="priority" />
<node id="009_006" x="2044.800000" y="1363.200000" type="priority" />
<node id="009_007" x="2044.800000" y="1590.400000" type="priority" />
<node id="009_008" x="2044.800000" y="1817.600000" type="priority" />
<node id="009_009" x="2044.800000" y="2044.800000" type="priority" />
<node id="009_010" x="2044.800000" y="2272.000000" type="priority" />
<node id="009_011" x="2044.800000" y="2499.200000" type="priority" />
<node id="009_012" x="2044.800000" y="2726.400000" type="priority" />
<node id="009_013" x="2044.800000" y="2953.600000" type="priority" />
<node id="009_014" x="2044.800000" y="3180.800000" type="priority" />
<node id="009_015" x="2044.800000" y="3408.000000" type="priority" />
<node id="009_016" x="2044.800000" y="3635.200000" type="priority" />
<node id="009_017" x="2044.800000" y="3862.400000" type="priority" />
<node id="009_018" x="2044.800000" y="4089.600000" type="priority" />
<node id="009_019" x="2044.800000" y="4316.800000" type="priority" />
<node id="009_020" x="2044.800000" y="4830.400000" type="priority" />
<node id="010_000" x="2272.000000" y="-286.400000" type="priority" />
<node id="010_001" x="2272.000000" y="227.200000" type="priority" />
<node id="010_002" x="2272.000000" y="454.400000" type="priority" />
<node id="010_003" x="2272.000000" y="681.600000" type="priority" />
<node id="010_004" x="2272.000000" y="908.800000" type="priority" />
<node id="010_005" x="2272.000000" y="1136.000000" type="priority" />
<node id="010_006" x="2272.000000" y="1363.200000" type="priority" />
<node id="010_007" x="2272.000000" y="1590.400000" type="priority" />
<node id="010_008" x="2272.000000" y="1817.600000" type="priority" />
<node id="010_009" x="2272.000000" y="2044.800000" type="priority" />
<node id="010_010" x="2272.000000" y="2272.000000" type="priority" />
<node id="010_011" x="2272.000000" y="2499.200000" type="priority" />
<node id="010_012" x="2272.000000" y="2726.400000" type="priority" />
<node id="010_013" x="2272.000000" y="2953.600000" type="priority" />
<node id="010_014" x="2272.000000" y="3180.800000" type="priority" />
<node id="010_015" x="2272.000000" y="3408.000000" type="priority" />
<node id="010_016" x="2272.000000" y="3635.200000" type="priority" />
<node id="010_017" x="2272.000000" y="3862.400000" type="priority" />
<node id="010_018" x="2272.000000" y="4089.600000" type="priority" />
<node id="010_019" x="2272.000000" y="4316.800000" type="priority" />
<node id="010_020" x="2272.000000" y="4830.400000" type="priority" />
<node id="011_000" x="2499.200000" y="-286.400000" type="priority" />
<node id="011_001" x="2499.200000" y="227.200000" type="priority" />
<node id="011_002" x="2499.200000" y="454.400000" type="priority" />
<node id="011_003" x="2499.200000" y="681.600000" type="priority" />
<node id="011_004" x="2499.200000" y="908.800000" type="priority" />
<node id="011_005" x="2499.200000" y="1136.000000" type="priority" />
<node id="011_006" x="2499.200000" y="1363.200000" type="priority" />
<node id="011_007" x="2499.200000" y="1590.400000" type="priority" />
<node id="011_008" x="2499.200000" y="1817.600000" type="priority" />
<node id="011_009" x="2499.200000" y="2044.800000" type="priority" />
<node id="011_010" x="2499.200000" y="2272.000000" type="priority" />
<node id="011_011" x="2499.200000" y="2499.200000" type="priority" />
<node id="011_012" x="2499.200000" y="2726.400000" type="priority" />
<node id="011_013" x="2499.200000" y="2953.600000" type="priority" />
<node id="011_014" x="2499.200000" y="3180.800000" type="priority" />
<node id="011_015" x="2499.200000" y="3408.000000" type="priority" />
<node id="011_016" x="2499.200000" y="3635.200000" type="priority" />
<node id="011_017" x="2499.200000" y="3862.400000" type="priority" />
<node id="011_018" x="2499.200000" y="4089.600000" type="priority" />
<node id="011_019" x="2499.200000" y="4316.800000" type="priority" />
<node id="011_020" x="2499.200000" y="4830.400000" type="priority" />
<node id="012_000" x="2726.400000" y="-286.400000" type="priority" />
<node id="012_001" x="2726.400000" y="227.200000" type="priority" />
<node id="012_002" x="2726.400000" y="454.400000" type="priority" />
<node id="012_003" x="2726.400000" y="681.600000" type="priority" />
<node id="012_004" x="2726.400000" y="908.800000" type="priority" />
<node id="012_005" x="2726.400000" y="1136.000000" type="priority" />
<node id="012_006" x="2726.400000" y="1363.200000" type="priority" />
<node id="012_007" x="2726.400000" y="1590.400000" type="priority" />
<node id="012_008" x="2726.400000" y="1817.600000" type="priority" />
<node id="012_009" x="2726.400000" y="2044.800000" type="priority" />
<node id="012_010" x="2726.400000" y="2272.000000" type="priority" />
<node id="012_011" x="2726.400000" y="2499.200000" type="priority" />
<node id="012_012" x="2726.400000" y="2726.400000" type="priority" />
<node id="012_013" x="2726.400000" y="2953.600000" type="priority" />
<node id="012_014" x="2726.400000" y="3180.800000" type="priority" />
<node id="012_015" x="2726.400000" y="3408.000000" type="priority" />
<node id="012_016" x="2726.400000" y="3635.200000" type="priority" />
<node id="012_017" x="2726.400000" y="3862.400000" type="priority" />
<node id="012_018" x="2726.400000" y="4089.600000" type="priority" />
<node id="012_019" x="2726.400000" y="4316.800000" type="priority" />
<node id="012_020" x="2726.400000" y="4830.400000" type="priority" />
<node id="013_000" x="2953.600000" y="-286.400000" type="priority" />
<node id="013_001" x="2953.600000" y="227.200000" type="priority" />
<node id="013_002" x="2953.600000" y="454.400000" type="priority" />
<node id="013_003" x="2953.600000" y="681.600000" type="priority" />
<node id="013_004" x="2953.600000" y="908.800000" type="priority" />
<node id="013_005" x="2953.600000" y="1136.000000" type="priority" />
<node id="013_006" x="2953.600000" y="1363.200000" type="priority" />
<node id="013_007" x="2953.600000" y="1590.400000" type="priority" />
<node id="013_008" x="2953.600000" y="1817.600000" type="priority" />
<node id="013_009" x="2953.600000" y="2044.800000" type="priority" />
<node id="013_010" x="2953.600000" y="2272.000000" type="priority" />
<node id="013_011" x="2953.600000" y="2499.200000" type="priority" />
<node id="013_012" x="2953.600000" y="2726.400000" type="priority" />
<node id="013_013" x="2953.600000" y="2953.600000" type="priority" />
<node id="013_014" x="2953.600000" y="3180.800000" type="priority" />
<node id="013_015" x="2953.600000" y="3408.000000" type="priority" />
<node id="013_016" x="2953.600000" y="3635.200000" type="priority" />
<node id="013_017" x="2953.600000" y="3862.400000" type="priority" />
<node id="013_018" x="2953.600000" y="4089.600000" type="priority" />
<node id="013_019" x="2953.600000" y="4316.800000" type="priority" />
<node id="013_020" x="2953.600000" y="4830.400000" type="priority" />
<node id="014_000" x="3180.800000" y="-286.400000" type="priority" />
<node id="014_001" x="3180.800000" y="227.200000" type="priority" />
<node id="014_002" x="3180.800000" y="454.400000" type="priority" />
<node id="014_003" x="3180.800000" y="681.600000" type="priority" />
<node id="014_004" x="3180.800000" y="908.800000" type="priority" />
<node id="014_005" x="3180.800000" y="1136.000000" type="priority" />
<node id="014_006" x="3180.800000" y="1363.200000" type="priority" />
<node id="014_007" x="3180.800000" y="1590.400000" type="priority" />
<node id="014_008" x="3180.800000" y="1817.600000" type="priority" />
<node id="014_009" x="3180.800000" y="2044.800000" type="priority" />
<node id="014_010" x="3180.800000" y="2272.000000" type="priority" />
<node id="014_011" x="3180.800000" y="2499.200000" type="priority" />
<node id="014_012" x="3180.800000" y="2726.400000" type="priority" />
<node id="014_013" x="3180.800000" y="2953.600000" type="priority" />
<node id="014_014" x="3180.800000" y="3180.800000" type="priority" />
<node id="014_015" x="3180.800000" y="3408.000000" type="priority" />
<node id="014_016" x="3180.800000" y="3635.200000" type="priority" />
<node id="014_017" x="3180.800000" y="3862.400000" type="priority" />
<node id="014_018" x="3180.800000" y="4089.600000" type="priority" />
<node id="014_019" x="3180.800000" y="4316.800000" type="priority" />
<node id="014_020" x="3180.800000" y="4830.400000" type="priority" />
<node id="015_000" x="3408.000000" y="-286.400000" type="priority" />
<node id="015_001" x="3408.000000" y="227.200000" type="priority" />
<node id="015_002" x="3408.000000" y="454.400000" type="priority" />
<node id="015_003" x="3408.000000" y="681.600000" type="priority" />
<node id="015_004" x="3408.000000" y="908.800000" type="priority" />
<node id="015_005" x="3408.000000" y="1136.000000" type="priority" />
<node id="015_006" x="3408.000000" y="1363.200000" type="priority" />
<node id="015_007" x="3408.000000" y="1590.400000" type="priority" />
<node id="015_008" x="3408.000000" y="1817.600000" type="priority" />
<node id="015_009" x="3408.000000" y="2044.800000" type="priority" />
<node id="015_010" x="3408.000000" y="2272.000000" type="priority" />
<node id="015_011" x="3408.000000" y="2499.200000" type="priority" />
<node id="015_012" x="3408.000000" y="2726.400000" type="priority" />
<node id="015_013" x="3408.000000" y="2953.600000" type="priority" />
<node id="015_014" x="3408.000000" y="3180.800000" type="priority" />
<node id="015_015" x="3408.000000" y="3408.000000" type="priority" />
<node id="015_016" x="3408.000000" y="3635.200000" type="priority" />
<node id="015_017" x="3408.000000" y="3862.400000" type="priority" />
<node id="015_018" x="3408.000000" y="4089.600000" type="priority" />
<node id="015_019" x="3408.000000" y="4316.800000" type="priority" />
<node id="015_020" x="3408.000000" y="4830.400000" type="priority" />
<node id="016_000" x="3635.200000" y="-286.400000" type="priority" />
<node id="016_001" x="3635.200000" y="227.200000" type="priority" />
<node id="016_002" x="3635.200000" y="454.400000" type="priority" />
<node id="016_003" x="3635.200000" y="681.600000" type="priority" />
<node id="016_004" x="3635.200000" y="908.800000" type="priority" />
<node id="016_005" x="3635.200000" y="1136.000000" type="priority" />
<node id="016_006" x="3635.200000" y="1363.200000" type="priority" />
<node id="016_007" x="3635.200000" y="1590.400000" type="priority" />
<node id="016_008" x="3635.200000" y="1817.600000" type="priority" />
<node id="016_009" x="3635.200000" y="2044.800000" type="priority" />
<node id="016_010" x="3635.200000" y="2272.000000" type="priority" />
<node id="016_011" x="3635.200000" y="2499.200000" type="priority" />
<node id="016_012" x="3635.200000" y="2726.400000" type="priority" />
<node id="016_013" x="3635.200000" y="2953.600000" type="priority" />
<node id="016_014" x="3635.200000" y="3180.800000" type="priority" />
<node id="016_015" x="3635.200000" y="3408.000000" type="priority" />
<node id="016_016" x="3635.200000" y="3635.200000" type="priority" />
<node id="016_017" x="3635.200000" y="3862.400000" type="priority" />
<node id="016_018" x="3635.200000" y="4089.600000" type="priority" />
<node id="016_019" x="3635.200000" y="4316.800000" type="priority" />
<node id="016_020" x="3635.200000" y="4830.400000" type="priority" />
<node id="017_000" x="3862.400000" y="-286.400000" type="priority" />
<node id="017_001" x="3862.400000" y="227.200000" type="priority" />
<node id="017_002" x="3862.400000" y="454.400000" type="priority" />
<node id="017_003" x="3862.400000" y="681.600000" type="priority" />
<node id="017_004" x="3862.400000" y="908.800000" type="priority" />
<node id="017_005" x="3862.400000" y="1136.000000" type="priority" />
<node id="017_006" x="3862.400000" y="1363.200000" type="priority" />
<node id="017_007" x="3862.400000" y="1590.400000" type="priority" />
<node id="017_008" x="3862.400000" y="1817.600000" type="priority" />
<node id="017_009" x="3862.400000" y="2044.800000" type="priority" />
<node id="017_010" x="3862.400000" y="2272.000000" type="priority" />
<node id="017_011" x="3862.400000" y="2499.200000" type="priority" />
<node id="017_012" x="3862.400000" y="2726.400000" type="priority" />
<node id="017_013" x="3862.400000" y="2953.600000" type="priority" />
<node id="017_014" x="3862.400000" y="3180.800000" type="priority" />
<node id="017_015" x="3862.400000" y="3408.000000" type="priority" />
<node id="017_016" x="3862.400000" y="3635.200000" type="priority" />
<node id="017_017" x="3862.400000" y="3862.400000" type="priority" />
<node id="017_018" x="3862.400000" y="4089.600000" type="priority" />
<node id="017_019" x="3862.400000" y="4316.800000" type="priority" />
<node id="017_020" x="3862.400000" y="4830.400000" type="priority" />
<node id="018_000" x="4089.600000" y="-286.400000" type="priority" />
<node id="018_001" x="4089.600000" y="227.200000" type="priority" />
<node id="018_002" x="4089.600000" y="454.400000" type="priority" />
<node id="018_003" x="4089.600000" y="681.600000" type="priority" />
<node id="018_004" x="4089.600000" y="908.800000" type="priority" />
<node id="018_005" x="4089.600000" y="1136.000000" type="priority" />
<node id="018_006" x="4089.600000" y="1363.200000" type="priority" />
<node id="018_007" x="4089.600000" y="1590.400000" type="priority" />
<node id="018_008" x="4089.600000" y="1817.600000" type="priority" />
<node id="018_009" x="4089.600000" y="2044.800000" type="priority" />
<node id="018_010" x="4089.600000" y="2272.000000" type="priority" />
<node id="018_011" x="4089.600000" y="2499.200000" type="priority" />
<node id="018_012" x="4089.600000" y="2726.400000" type="priority" />
<node id="018_013" x="4089.600000" y="2953.600000" type="priority" />
<node id="018_014" x="4089.600000" y="3180.800000" type="priority" />
<node id="018_015" x="4089.600000" y="3408.000000" type="priority" />
<node id="018_016" x="4089.600000" y="3635.200000" type="priority" />
<node id="018_017" x="4089.600000" y="3862.400000" type="priority" />
<node id="018_018" x="4089.600000" y="4089.600000" type="priority" />
<node id="018_019" x="4089.600000" y="4316.800000" type="priority" />
<node id="018_020" x="4089.600000" y="4830.400000" type="priority" />
<node id="019_000" x="4316.800000" y="-286.400000" type="priority" />
<node id="019_001" x="4316.800000" y="227.200000" type="priority" />
<node id="019_002" x="4316.800000" y="454.400000" type="priority" />
<node id="019_003" x="4316.800000" y="681.600000" type="priority" />
<node id="019_004" x="4316.800000" y="908.800000" type="priority" />
<node id="019_005" x="4316.800000" y="1136.000000" type="priority" />
<node id="019_006" x="4316.800000" y="1363.200000" type="priority" />
<node id="019_007" x="4316.800000" y="1590.400000" type="priority" />
<node id="019_008" x="4316.800000" y="1817.600000" type="priority" />
<node id="019_009" x="4316.800000" y="2044.800000" type="priority" />
<node id="019_010" x="4316.800000" y="2272.000000" type="priority" />
<node id="019_011" x="4316.800000" y="2499.200000" type="priority" />
<node id="019_012" x="4316.800000" y="2726.400000" type="priority" />
<node id="019_013" x="4316.800000" y="2953.600000" type="priority" />
<node id="019_014" x="4316.800000" y="3180.800000" type="priority" />
<node id="019_015" x="4316.800000" y="3408.000000" type="priority" />
<node id="019_016" x="4316.800000" y="3635.200000" type="priority" />
<node id="019_017" x="4316.800000" y="3862.400000" type="priority" />
<node id="019_018" x="4316.800000" y="4089.600000" type="priority" />
<node id="019_019" x="4316.800000" y="4316.800000" type="priority" />
<node id="019_020" x="4316.800000" y="4830.400000" type="priority" />
<node id="020_001" x="4830.400000" y="227.200000" type="priority" />
<node id="020_002" x="4830.400000" y="454.400000" type="priority" />
<node id="020_003" x="4830.400000" y="681.600000" type="priority" />
<node id="020_004" x="4830.400000" y="908.800000" type="priority" />
<node id="020_005" x="4830.400000" y="1136.000000" type="priority" />
<node id="020_006" x="4830.400000" y="1363.200000" type="priority" />
<node id="020_007" x="4830.400000" y="1590.400000" type="priority" />
<node id="020_008" x="4830.400000" y="1817.600000" type="priority" />
<node id="020_009" x="4830.400000" y="2044.800000" type="priority" />
<node id="020_010" x="4830.400000" y="2272.000000" type="priority" />
<node id="020_011" x="4830.400000" y="2499.200000" type="priority" />
<node id="020_012" x="4830.400000" y="2726.400000" type="priority" />